! Chemkin file converted from Cantera solution object
! 

ELEMENTS
O  H  C  N  Ar
END


SPECIES
H2      H       O       O2      OH      H2O     HO2     H2O2    CH2
CH2(S)  CH3     CH4     CO      CO2     HCO     CH2O    CH3O    C2H4
C2H5    C2H6    N2      C3H7    C3H8    NO      AR
END


REACTIONS  CAL/MOLE  MOLES
2 O + M <=> O2 + M                                  1.2048986E+017   -1.0000000E+000    0.0000000E+000    
   AR/ 0.830/  C2H6/ 3.000/  CH4/ 2.000/  CO/ 1.750/  CO2/ 3.600/  H2/ 2.400/  H2O/ 15.400/
O + H + M <=> OH + M                                5.0272911E+017   -1.0000000E+000    0.0000000E+000    
   AR/ 0.700/  C2H6/ 3.000/  CH4/ 2.000/  CO/ 1.500/  CO2/ 2.000/  H2/ 2.000/  H2O/ 6.000/
O + H2 <=> OH + H                                   4.1457440E+004    2.7000000E+000    6.2600000E+003    
HO2 + O <=> O2 + OH                                 1.7636528E+013    0.0000000E+000    0.0000000E+000    
H2O2 + O <=> HO2 + OH                               9.6031894E+006    2.0000000E+000    4.0000000E+003    
O + CH2 <=> HCO + H                                 8.2347251E+013    0.0000000E+000    0.0000000E+000    
O + CH2(S) <=> CO + H2                              1.5085011E+013    0.0000000E+000    0.0000000E+000    
O + CH2(S) <=> HCO + H                              1.5065322E+013    0.0000000E+000    0.0000000E+000    
O + CH3 <=> CH2O + H                                5.0600000E+013    0.0000000E+000    0.0000000E+000    
CH4 + O <=> OH + CH3                                8.5380233E+008    1.5000000E+000    8.6000000E+003    
CO + O (+M) <=> CO2 (+M)                            1.7892393E+010    0.0000000E+000    2.3850000E+003    
                                           LOW /    5.9840114E+014    0.0000000E+000    3.0000000E+003 /
   AR/ 0.500/  C2H6/ 3.000/  CH4/ 2.000/  CO/ 1.500/  CO2/ 3.500/  H2/ 2.000/  H2O/ 6.000/  O2/ 6.000/
HCO + O <=> CO + OH                                 3.0201730E+013    0.0000000E+000    0.0000000E+000    
HCO + O <=> CO2 + H                                 3.0124480E+013    0.0000000E+000    0.0000000E+000    
CH2O + O <=> HCO + OH                               3.4897923E+013    0.0000000E+000    3.5400000E+003    
CH3O + O <=> CH2O + OH                              1.0030754E+013    0.0000000E+000    0.0000000E+000    
C2H4 + O <=> HCO + CH3                              1.4347175E+007    1.8300000E+000    2.2000000E+002    
C2H5 + O <=> CH2O + CH3                             2.2090962E+013    0.0000000E+000    0.0000000E+000    
C2H6 + O <=> C2H5 + OH                              8.9897982E+007    1.9200000E+000    5.6900000E+003    
O2 + CO <=> CO2 + O                                 2.5264421E+012    0.0000000E+000    4.7800000E+004    
O2 + CH2O <=> HO2 + HCO                             8.0238061E+013    0.0000000E+000    4.0000000E+004    
O2 + H + M <=> HO2 + M                              2.8000000E+018   -8.6000000E-001    0.0000000E+000    
   AR/ 0.000/  C2H6/ 1.500/  CO/ 0.750/  CO2/ 1.500/  H2O/ 0.000/  N2/ 0.000/  O2/ 0.000/
2 O2 + H <=> HO2 + O2                               2.0084871E+019   -1.2400000E+000    0.0000000E+000    
O2 + H2O + H <=> HO2 + H2O                          1.4475454E+019   -7.6000000E-001    0.0000000E+000    
O2 + N2 + H <=> HO2 + N2                            2.7112402E+019   -1.2400000E+000    0.0000000E+000    
O2 + H <=> OH + O                                   2.6500000E+016   -6.7070000E-001    1.7041000E+004    
2 H + M <=> H2 + M                                  9.9457434E+017   -1.0000000E+000    0.0000000E+000    
   AR/ 0.630/  C2H6/ 3.000/  CH4/ 2.000/  CO2/ 0.000/  H2/ 0.000/  H2O/ 0.000/
H2 + 2 H <=> 2 H2                                   9.0139391E+016   -6.0000000E-001    0.0000000E+000    
H2O + 2 H <=> H2O + H2                              5.9492883E+019   -1.2500000E+000    0.0000000E+000    
CO2 + 2 H <=> CO2 + H2                              5.5143087E+020   -2.0000000E+000    0.0000000E+000    
OH + H + M <=> H2O + M                              2.1585641E+022   -2.0000000E+000    0.0000000E+000    
   AR/ 0.380/  C2H6/ 3.000/  CH4/ 2.000/  H2/ 0.730/  H2O/ 3.650/
HO2 + H <=> H2O + O                                 3.8701629E+012    0.0000000E+000    6.7100000E+002    
HO2 + H <=> O2 + H2                                 3.0363287E+013    0.0000000E+000    1.0680000E+003    
HO2 + H <=> 2 OH                                    5.5490822E+013    0.0000000E+000    6.3500000E+002    
H2O2 + H <=> HO2 + H2                               1.2812748E+007    2.0000000E+000    5.2000000E+003    
H2O2 + H <=> H2O + OH                               9.8980669E+012    0.0000000E+000    3.6000000E+003    
CH2 + H (+M) <=> CH3 (+M)                           5.8472489E+014    0.0000000E+000    0.0000000E+000    
                                           LOW /    1.0135231E+026   -2.7600000E+000    1.6000000E+003 /
                          TROE /  5.6200000E-001    9.1000000E+001    5.8360000E+003    8.5520000E+003 /
   AR/ 0.700/  C2H6/ 3.000/  CH4/ 2.000/  CO/ 1.500/  CO2/ 2.000/  H2/ 2.000/  H2O/ 6.000/
CH3 + H (+M) <=> CH4 (+M)                           1.3900000E+016   -5.3400000E-001    5.3600000E+002    
                                           LOW /    2.6200000E+033   -4.7600000E+000    2.4400000E+003 /
                          TROE /  7.8300000E-001    7.4000000E+001    2.9410000E+003    6.9640000E+003 /
   AR/ 0.700/  C2H6/ 3.000/  CH4/ 3.000/  CO/ 1.500/  CO2/ 2.000/  H2/ 2.000/  H2O/ 6.000/
CH4 + H <=> CH3 + H2                                5.0635151E+008    1.6200000E+000    1.0840000E+004    
HCO + H (+M) <=> CH2O (+M)                          1.1011245E+012    4.8000000E-001   -2.6000000E+002    
                                           LOW /    2.4952088E+024   -2.5700000E+000    4.2500000E+002 /
                          TROE /  7.8240000E-001    2.7100000E+002    2.7550000E+003    6.5700000E+003 /
   AR/ 0.700/  C2H6/ 3.000/  CH4/ 2.000/  CO/ 1.500/  CO2/ 2.000/  H2/ 2.000/  H2O/ 6.000/
HCO + H <=> CO + H2                                 7.3400000E+013    0.0000000E+000    0.0000000E+000    
CH2O + H (+M) <=> CH3O (+M)                         5.1726765E+011    4.5400000E-001    2.6000000E+003    
                                           LOW /    2.1073867E+030   -4.8000000E+000    5.5600000E+003 /
                          TROE /  7.5800000E-001    9.4000000E+001    1.5550000E+003    4.2000000E+003 /
   C2H6/ 3.000/  CH4/ 2.000/  CO/ 1.500/  CO2/ 2.000/  H2/ 2.000/  H2O/ 6.000/
CH2O + H <=> HCO + H2                               4.4818652E+007    1.9000000E+000    2.7420000E+003    
CH3O + H <=> CH2O + H2                              1.9914042E+013    0.0000000E+000    0.0000000E+000    
CH3O + H <=> OH + CH3                               1.5170136E+012    5.0000000E-001   -1.1000000E+002    
CH3O + H <=> H2O + CH2(S)                           2.6238155E+014   -2.3000000E-001    1.0700000E+003    
C2H4 + H (+M) <=> C2H5 (+M)                         6.9544371E+011    4.5400000E-001    1.8200000E+003    
                                           LOW /    7.7271524E+041   -7.6200000E+000    6.9700000E+003 /
                          TROE /  9.7530000E-001    2.1000000E+002    9.8400000E+002    4.3740000E+003 /
   AR/ 0.700/  C2H6/ 3.000/  CH4/ 2.000/  CO/ 1.500/  CO2/ 2.000/  H2/ 2.000/  H2O/ 6.000/
C2H5 + H (+M) <=> C2H6 (+M)                         4.6191499E+017   -9.9000000E-001    1.5800000E+003    
                                           LOW /    1.7643202E+041   -7.0800000E+000    6.6850000E+003 /
                          TROE /  8.4220000E-001    1.2500000E+002    2.2190000E+003    6.8820000E+003 /
   AR/ 0.700/  C2H6/ 3.000/  CH4/ 2.000/  CO/ 1.500/  CO2/ 2.000/  H2/ 2.000/  H2O/ 6.000/
C2H5 + H <=> C2H4 + H2                              1.9797510E+012    0.0000000E+000    0.0000000E+000    
C2H6 + H <=> C2H5 + H2                              9.2238581E+007    1.9000000E+000    7.5300000E+003    
CO + H2 (+M) <=> CH2O (+M)                          4.2897806E+007    1.5000000E+000    7.9600000E+004    
                                           LOW /    5.0579507E+027   -3.4200000E+000    8.4350000E+004 /
                          TROE /  9.3200000E-001    1.9700000E+002    1.5400000E+003    1.0300000E+004 /
   AR/ 0.700/  C2H6/ 3.000/  CH4/ 2.000/  CO/ 1.500/  CO2/ 2.000/  H2/ 2.000/  H2O/ 6.000/
OH + H2 <=> H2O + H                                 2.9972756E+008    1.5100000E+000    3.4300000E+003    
2 OH (+M) <=> H2O2 (+M)                             8.9630267E+013   -3.7000000E-001    0.0000000E+000    
                                           LOW /    2.7858056E+018   -9.0000000E-001   -1.7000000E+003 /
                          TROE /  7.3460000E-001    9.4000000E+001    1.7560000E+003    5.1820000E+003 /
   AR/ 0.700/  C2H6/ 3.000/  CH4/ 2.000/  CO/ 1.500/  CO2/ 2.000/  H2/ 2.000/  H2O/ 6.000/
2 OH <=> H2O + O                                    3.2541681E+004    2.4000000E+000   -2.1100000E+003    
HO2 + OH <=> O2 + H2O                               1.1220033E+013    0.0000000E+000   -5.0000000E+002    
   DUPLICATE
H2O2 + OH <=> HO2 + H2O                             1.9896398E+012    0.0000000E+000    4.2700000E+002    
   DUPLICATE
H2O2 + OH <=> HO2 + H2O                             2.1205273E+018    0.0000000E+000    2.9410000E+004    
   DUPLICATE
OH + CH2 <=> CH2O + H                               2.1161339E+013    0.0000000E+000    0.0000000E+000    
OH + CH2(S) <=> CH2O + H                            3.0256601E+013    0.0000000E+000    0.0000000E+000    
OH + CH3 <=> H2O + CH2                              5.9363944E+007    1.6000000E+000    5.4200000E+003    
OH + CH3 <=> H2O + CH2(S)                           7.0035584E+017   -1.3400000E+000    1.4170000E+003    
OH + CH4 <=> H2O + CH3                              9.4837347E+007    1.6000000E+000    3.1200000E+003    
CO + OH <=> CO2 + H                                 4.7600000E+007    1.2280000E+000    7.0000000E+001    
HCO + OH <=> CO + H2O                               5.0624604E+013    0.0000000E+000    0.0000000E+000    
CH2O + OH <=> HCO + H2O                             2.6625053E+009    1.1800000E+000   -4.4700000E+002    
CH3O + OH <=> CH2O + H2O                            4.9983833E+012    0.0000000E+000    0.0000000E+000    
C2H6 + OH <=> C2H5 + H2O                            2.8177241E+006    2.1200000E+000    8.7000000E+002    
2 HO2 <=> H2O2 + O2                                 1.3980685E+011    0.0000000E+000   -1.6300000E+003    
   DUPLICATE
2 HO2 <=> H2O2 + O2                                 3.7686377E+014    0.0000000E+000    1.2000000E+004    
   DUPLICATE
HO2 + CH2 <=> CH2O + OH                             1.9900117E+013    0.0000000E+000    0.0000000E+000    
HO2 + CH3 <=> O2 + CH4                              7.1428360E+011    0.0000000E+000    0.0000000E+000    
HO2 + CH3 <=> CH3O + OH                             3.7800000E+013    0.0000000E+000    0.0000000E+000    
HO2 + CO <=> CO2 + OH                               1.2224556E+014    0.0000000E+000    2.3600000E+004    
HO2 + CH2O <=> H2O2 + HCO                           6.3171954E+006    2.0000000E+000    1.2000000E+004    
O2 + CH2 => CO + OH + H                             5.7005110E+012    0.0000000E+000    1.5000000E+003    
CH2 + H2 <=> CH3 + H                                5.0672794E+005    2.0000000E+000    7.2300000E+003    
CH3 + CH2 <=> C2H4 + H                              4.2107522E+013    0.0000000E+000    0.0000000E+000    
CH4 + CH2 <=> 2 CH3                                 2.4496437E+006    2.0000000E+000    8.2700000E+003    
N2 + CH2(S) <=> N2 + CH2                            1.5859855E+013    0.0000000E+000    6.0000000E+002    
O2 + CH2(S) <=> CO + OH + H                         2.9841154E+013    0.0000000E+000    0.0000000E+000    
O2 + CH2(S) <=> CO + H2O                            1.1731636E+013    0.0000000E+000    0.0000000E+000    
CH2(S) + H2 <=> CH3 + H                             7.4744522E+013    0.0000000E+000    0.0000000E+000    
H2O + CH2(S) <=> H2O + CH2                          3.1321451E+013    0.0000000E+000    0.0000000E+000    
CH3 + CH2(S) <=> C2H4 + H                           1.2040264E+013    0.0000000E+000   -5.7000000E+002    
CH4 + CH2(S) <=> 2 CH3                              1.5981108E+013    0.0000000E+000   -5.7000000E+002    
CO + CH2(S) <=> CO + CH2                            9.0467985E+012    0.0000000E+000    0.0000000E+000    
CO2 + CH2(S) <=> CO2 + CH2                          7.0253921E+012    0.0000000E+000    0.0000000E+000    
CO2 + CH2(S) <=> CH2O + CO                          1.5131326E+013    0.0000000E+000    0.0000000E+000    
C2H6 + CH2(S) <=> C2H5 + CH3                        3.9974146E+013    0.0000000E+000   -5.5000000E+002    
O2 + CH3 <=> CH3O + O                               3.4913361E+013    0.0000000E+000    3.0480000E+004    
O2 + CH3 <=> CH2O + OH                              2.1799519E+012    0.0000000E+000    2.0315000E+004    
H2O2 + CH3 <=> HO2 + CH4                            2.1261917E+004    2.4700000E+000    5.1800000E+003    
2 CH3 (+M) <=> C2H6 (+M)                            6.7350188E+016   -1.1800000E+000    6.5400000E+002    
                                           LOW /    3.3824319E+041   -7.0300000E+000    2.7620000E+003 /
                          TROE /  6.1900000E-001    7.3200000E+001    1.1800000E+003    9.9990000E+003 /
   AR/ 0.700/  C2H6/ 3.000/  CH4/ 2.000/  CO/ 1.500/  CO2/ 2.000/  H2/ 2.000/  H2O/ 6.000/
2 CH3 <=> C2H5 + H                                  6.4861821E+012    1.0000000E-001    1.0600000E+004    
HCO + CH3 <=> CO + CH4                              2.3289312E+013    0.0000000E+000    0.0000000E+000    
CH2O + CH3 <=> HCO + CH4                            2.9452923E+003    2.8100000E+000    5.8600000E+003    
C2H6 + CH3 <=> C2H5 + CH4                           4.8909118E+006    1.7400000E+000    1.0450000E+004    
HCO + H2O <=> CO + H2O + H                          1.1737317E+018   -1.0000000E+000    1.7000000E+004    
HCO + M <=> CO + H + M                              1.8700000E+017   -1.0000000E+000    1.7000000E+004    
   C2H6/ 3.000/  CH4/ 2.000/  CO/ 1.500/  CO2/ 2.000/  H2/ 2.000/  H2O/ 0.000/
O2 + HCO <=> HO2 + CO                               1.3450000E+013    0.0000000E+000    4.0000000E+002    
O2 + CH3O <=> HO2 + CH2O                            4.5252009E-013    7.6000000E+000   -3.5300000E+003    
O2 + C2H5 <=> HO2 + C2H4                            1.2132008E+012    0.0000000E+000    3.8750000E+003    
O + CH3 => CO + H2 + H                              3.2148667E+013    0.0000000E+000    0.0000000E+000    
HO2 + OH <=> O2 + H2O                               4.0557069E+015    0.0000000E+000    1.7330000E+004    
   DUPLICATE
OH + CH3 => CH2O + H2                               8.4222748E+009    5.0000000E-001   -1.7550000E+003    
O2 + CH2 => CO2 + 2 H                               6.6960066E+012    0.0000000E+000    1.5000000E+003    
O2 + CH2 <=> CH2O + O                               2.7195060E+012    0.0000000E+000    1.5000000E+003    
H2O + CH2(S) => CH2O + H2                           6.9085654E+010    2.5000000E-001   -9.3500000E+002    
C2H5 + CH3 (+M) <=> C3H8 (+M)                       9.3389119E+012    0.0000000E+000    0.0000000E+000    
                                           LOW /    2.6838230E+074   -1.6820000E+001    1.3065000E+004 /
                          TROE /  1.5270000E-001    2.9100000E+002    2.7420000E+003    7.7480000E+003 /
   AR/ 0.700/  C2H6/ 3.000/  CH4/ 2.000/  CO/ 1.500/  CO2/ 2.000/  H2/ 2.000/  H2O/ 6.000/
C3H8 + O <=> C3H7 + OH                              1.9112245E+005    2.6800000E+000    3.7160000E+003    
C3H8 + H <=> C3H7 + H2                              1.0497081E+006    2.5400000E+000    6.7560000E+003    
C3H8 + OH <=> C3H7 + H2O                            3.0383017E+007    1.8000000E+000    9.3400000E+002    
C3H7 + H2O2 <=> C3H8 + HO2                          3.6354063E+002    2.7200000E+000    1.5000000E+003    
C3H8 + CH3 <=> C3H7 + CH4                           8.9916967E-001    3.6500000E+000    7.1540000E+003    
C2H4 + CH3 (+M) <=> C3H7 (+M)                       2.5260287E+006    1.6000000E+000    5.7000000E+003    
                                           LOW /    2.9717985E+063   -1.4600000E+001    1.8170000E+004 /
                          TROE /  1.8940000E-001    2.7700000E+002    8.7480000E+003    7.8910000E+003 /
   AR/ 0.700/  C2H6/ 3.000/  CH4/ 2.000/  CO/ 1.500/  CO2/ 2.000/  H2/ 2.000/  H2O/ 6.000/
C3H7 + O <=> CH2O + C2H5                            9.6574158E+013    0.0000000E+000    0.0000000E+000    
C3H7 + H (+M) <=> C3H8 (+M)                         3.6224732E+013    0.0000000E+000    0.0000000E+000    
                                           LOW /    4.4315891E+061   -1.3545000E+001    1.1357000E+004 /
                          TROE /  3.1500000E-001    3.6900000E+002    3.2850000E+003    6.6670000E+003 /
   AR/ 0.700/  C2H6/ 3.000/  CH4/ 2.000/  CO/ 1.500/  CO2/ 2.000/  H2/ 2.000/  H2O/ 6.000/
C3H7 + H <=> C2H5 + CH3                             4.0768441E+006    2.1900000E+000    8.9000000E+002    
C3H7 + HO2 <=> C3H8 + O2                            2.5199909E+010    2.5500000E-001   -9.4300000E+002    
C3H7 + HO2 => CH2O + C2H5 + OH                      2.4277307E+013    0.0000000E+000    0.0000000E+000    
C3H7 + CH3 <=> 2 C2H5                               1.9363669E+013   -3.2000000E-001    0.0000000E+000    
END