! Chemkin file converted from Cantera solution object
! 

ELEMENTS
O  H  C  N  Ar
END


SPECIES
H2      H       O       O2      OH      H2O     HO2     H2O2    C
CH      CH2     CH2(S)  CH3     CH4     CO      CO2     HCO     CH2O
CH2OH   CH3O    CH3OH   C2H     C2H2    C2H3    C2H4    C2H5    C2H6
HCCO    CH2CO   HCCOH   N       NH      NH2     NH3     NNH     NO
NO2     N2O     HNO     CN      HCN     H2CN    HCNN    HCNO    HOCN
HNCO    NCO     N2      AR      C3H7    C3H8    CH2CHO  CH3CHO
END


REACTIONS  CAL/MOLE  MOLES
2 O + M <=> O2 + M                                  1.2000000E+017   -1.0000000E+000    0.0000000E+000    
   AR/ 0.830/  C2H6/ 3.000/  CH4/ 2.000/  CO/ 1.750/  CO2/ 3.600/  H2/ 2.400/  H2O/ 15.400/
O + H + M <=> OH + M                                5.0000000E+017   -1.0000000E+000    0.0000000E+000    
   AR/ 0.700/  C2H6/ 3.000/  CH4/ 2.000/  CO/ 1.500/  CO2/ 2.000/  H2/ 2.000/  H2O/ 6.000/
O + H2 <=> OH + H                                   3.8700000E+004    2.7000000E+000    6.2600000E+003    
HO2 + O <=> O2 + OH                                 2.0000000E+013    0.0000000E+000    0.0000000E+000    
H2O2 + O <=> HO2 + OH                               9.6300000E+006    2.0000000E+000    4.0000000E+003    
O + CH <=> CO + H                                   5.7000000E+013    0.0000000E+000    0.0000000E+000    
O + CH2 <=> HCO + H                                 8.0000000E+013    0.0000000E+000    0.0000000E+000    
O + CH2(S) <=> CO + H2                              1.5000000E+013    0.0000000E+000    0.0000000E+000    
O + CH2(S) <=> HCO + H                              1.5000000E+013    0.0000000E+000    0.0000000E+000    
O + CH3 <=> CH2O + H                                5.0600000E+013    0.0000000E+000    0.0000000E+000    
CH4 + O <=> OH + CH3                                1.0200000E+009    1.5000000E+000    8.6000000E+003    
CO + O (+M) <=> CO2 (+M)                            1.8000000E+010    0.0000000E+000    2.3850000E+003    
                                           LOW /    6.0200000E+014    0.0000000E+000    3.0000000E+003 /
   AR/ 0.500/  C2H6/ 3.000/  CH4/ 2.000/  CO/ 1.500/  CO2/ 3.500/  H2/ 2.000/  H2O/ 6.000/  O2/ 6.000/
HCO + O <=> CO + OH                                 3.0000000E+013    0.0000000E+000    0.0000000E+000    
HCO + O <=> CO2 + H                                 3.0000000E+013    0.0000000E+000    0.0000000E+000    
CH2O + O <=> HCO + OH                               3.9000000E+013    0.0000000E+000    3.5400000E+003    
CH2OH + O <=> CH2O + OH                             1.0000000E+013    0.0000000E+000    0.0000000E+000    
CH3O + O <=> CH2O + OH                              1.0000000E+013    0.0000000E+000    0.0000000E+000    
CH3OH + O <=> CH2OH + OH                            3.8800000E+005    2.5000000E+000    3.1000000E+003    
CH3OH + O <=> CH3O + OH                             1.3000000E+005    2.5000000E+000    5.0000000E+003    
C2H + O <=> CO + CH                                 5.0000000E+013    0.0000000E+000    0.0000000E+000    
C2H2 + O <=> HCCO + H                               1.3500000E+007    2.0000000E+000    1.9000000E+003    
C2H2 + O <=> C2H + OH                               4.6000000E+019   -1.4100000E+000    2.8950000E+004    
C2H2 + O <=> CO + CH2                               6.9400000E+006    2.0000000E+000    1.9000000E+003    
C2H3 + O <=> CH2CO + H                              3.0000000E+013    0.0000000E+000    0.0000000E+000    
C2H4 + O <=> HCO + CH3                              1.2500000E+007    1.8300000E+000    2.2000000E+002    
C2H5 + O <=> CH2O + CH3                             2.2400000E+013    0.0000000E+000    0.0000000E+000    
C2H6 + O <=> C2H5 + OH                              8.9800000E+007    1.9200000E+000    5.6900000E+003    
HCCO + O <=> 2 CO + H                               1.0000000E+014    0.0000000E+000    0.0000000E+000    
CH2CO + O <=> HCCO + OH                             1.0000000E+013    0.0000000E+000    8.0000000E+003    
CH2CO + O <=> CO2 + CH2                             1.7500000E+012    0.0000000E+000    1.3500000E+003    
O2 + CO <=> CO2 + O                                 2.5000000E+012    0.0000000E+000    4.7800000E+004    
O2 + CH2O <=> HO2 + HCO                             1.0000000E+014    0.0000000E+000    4.0000000E+004    
O2 + H + M <=> HO2 + M                              2.8000000E+018   -8.6000000E-001    0.0000000E+000    
   AR/ 0.000/  C2H6/ 1.500/  CO/ 0.750/  CO2/ 1.500/  H2O/ 0.000/  N2/ 0.000/  O2/ 0.000/
2 O2 + H <=> HO2 + O2                               2.0800000E+019   -1.2400000E+000    0.0000000E+000    
O2 + H2O + H <=> HO2 + H2O                          1.1260000E+019   -7.6000000E-001    0.0000000E+000    
O2 + N2 + H <=> HO2 + N2                            2.6000000E+019   -1.2400000E+000    0.0000000E+000    
AR + O2 + H <=> AR + HO2                            7.0000000E+017   -8.0000000E-001    0.0000000E+000    
O2 + H <=> OH + O                                   2.6500000E+016   -6.7070000E-001    1.7041000E+004    
2 H + M <=> H2 + M                                  1.0000000E+018   -1.0000000E+000    0.0000000E+000    
   AR/ 0.630/  C2H6/ 3.000/  CH4/ 2.000/  CO2/ 0.000/  H2/ 0.000/  H2O/ 0.000/
H2 + 2 H <=> 2 H2                                   9.0000000E+016   -6.0000000E-001    0.0000000E+000    
H2O + 2 H <=> H2O + H2                              6.0000000E+019   -1.2500000E+000    0.0000000E+000    
CO2 + 2 H <=> CO2 + H2                              5.5000000E+020   -2.0000000E+000    0.0000000E+000    
OH + H + M <=> H2O + M                              2.2000000E+022   -2.0000000E+000    0.0000000E+000    
   AR/ 0.380/  C2H6/ 3.000/  CH4/ 2.000/  H2/ 0.730/  H2O/ 3.650/
HO2 + H <=> H2O + O                                 3.9700000E+012    0.0000000E+000    6.7100000E+002    
HO2 + H <=> O2 + H2                                 4.4800000E+013    0.0000000E+000    1.0680000E+003    
HO2 + H <=> 2 OH                                    8.4000000E+013    0.0000000E+000    6.3500000E+002    
H2O2 + H <=> HO2 + H2                               1.2100000E+007    2.0000000E+000    5.2000000E+003    
H2O2 + H <=> H2O + OH                               1.0000000E+013    0.0000000E+000    3.6000000E+003    
CH + H <=> C + H2                                   1.6500000E+014    0.0000000E+000    0.0000000E+000    
CH2 + H (+M) <=> CH3 (+M)                           6.0000000E+014    0.0000000E+000    0.0000000E+000    
                                           LOW /    1.0400000E+026   -2.7600000E+000    1.6000000E+003 /
                          TROE /  5.6200000E-001    9.1000000E+001    5.8360000E+003    8.5520000E+003 /
   AR/ 0.700/  C2H6/ 3.000/  CH4/ 2.000/  CO/ 1.500/  CO2/ 2.000/  H2/ 2.000/  H2O/ 6.000/
CH2(S) + H <=> CH + H2                              3.0000000E+013    0.0000000E+000    0.0000000E+000    
CH3 + H (+M) <=> CH4 (+M)                           1.3900000E+016   -5.3400000E-001    5.3600000E+002    
                                           LOW /    2.6200000E+033   -4.7600000E+000    2.4400000E+003 /
                          TROE /  7.8300000E-001    7.4000000E+001    2.9410000E+003    6.9640000E+003 /
   AR/ 0.700/  C2H6/ 3.000/  CH4/ 3.000/  CO/ 1.500/  CO2/ 2.000/  H2/ 2.000/  H2O/ 6.000/
CH4 + H <=> CH3 + H2                                6.6000000E+008    1.6200000E+000    1.0840000E+004    
HCO + H (+M) <=> CH2O (+M)                          1.0900000E+012    4.8000000E-001   -2.6000000E+002    
                                           LOW /    2.4700000E+024   -2.5700000E+000    4.2500000E+002 /
                          TROE /  7.8240000E-001    2.7100000E+002    2.7550000E+003    6.5700000E+003 /
   AR/ 0.700/  C2H6/ 3.000/  CH4/ 2.000/  CO/ 1.500/  CO2/ 2.000/  H2/ 2.000/  H2O/ 6.000/
HCO + H <=> CO + H2                                 7.3400000E+013    0.0000000E+000    0.0000000E+000    
CH2O + H (+M) <=> CH2OH (+M)                        5.4000000E+011    4.5400000E-001    3.6000000E+003    
                                           LOW /    1.2700000E+032   -4.8200000E+000    6.5300000E+003 /
                          TROE /  7.1870000E-001    1.0300000E+002    1.2910000E+003    4.1600000E+003 /
   C2H6/ 3.000/  CH4/ 2.000/  CO/ 1.500/  CO2/ 2.000/  H2/ 2.000/  H2O/ 6.000/
CH2O + H (+M) <=> CH3O (+M)                         5.4000000E+011    4.5400000E-001    2.6000000E+003    
                                           LOW /    2.2000000E+030   -4.8000000E+000    5.5600000E+003 /
                          TROE /  7.5800000E-001    9.4000000E+001    1.5550000E+003    4.2000000E+003 /
   C2H6/ 3.000/  CH4/ 2.000/  CO/ 1.500/  CO2/ 2.000/  H2/ 2.000/  H2O/ 6.000/
CH2O + H <=> HCO + H2                               5.7400000E+007    1.9000000E+000    2.7420000E+003    
CH2OH + H (+M) <=> CH3OH (+M)                       1.0550000E+012    5.0000000E-001    8.6000000E+001    
                                           LOW /    4.3600000E+031   -4.6500000E+000    5.0800000E+003 /
                          TROE /  6.0000000E-001    1.0000000E+002    9.0000000E+004    1.0000000E+004 /
   C2H6/ 3.000/  CH4/ 2.000/  CO/ 1.500/  CO2/ 2.000/  H2/ 2.000/  H2O/ 6.000/
CH2OH + H <=> CH2O + H2                             2.0000000E+013    0.0000000E+000    0.0000000E+000    
CH2OH + H <=> OH + CH3                              1.6500000E+011    6.5000000E-001   -2.8400000E+002    
CH2OH + H <=> H2O + CH2(S)                          3.2800000E+013   -9.0000000E-002    6.1000000E+002    
CH3O + H (+M) <=> CH3OH (+M)                        2.4300000E+012    5.1500000E-001    5.0000000E+001    
                                           LOW /    4.6600000E+041   -7.4400000E+000    1.4080000E+004 /
                          TROE /  7.0000000E-001    1.0000000E+002    9.0000000E+004    1.0000000E+004 /
   C2H6/ 3.000/  CH4/ 2.000/  CO/ 1.500/  CO2/ 2.000/  H2/ 2.000/  H2O/ 6.000/
CH3O + H <=> CH2OH + H                              4.1500000E+007    1.6300000E+000    1.9240000E+003    
CH3O + H <=> CH2O + H2                              2.0000000E+013    0.0000000E+000    0.0000000E+000    
CH3O + H <=> OH + CH3                               1.5000000E+012    5.0000000E-001   -1.1000000E+002    
CH3O + H <=> H2O + CH2(S)                           2.6200000E+014   -2.3000000E-001    1.0700000E+003    
CH3OH + H <=> CH2OH + H2                            1.7000000E+007    2.1000000E+000    4.8700000E+003    
CH3OH + H <=> CH3O + H2                             4.2000000E+006    2.1000000E+000    4.8700000E+003    
C2H + H (+M) <=> C2H2 (+M)                          1.0000000E+017   -1.0000000E+000    0.0000000E+000    
                                           LOW /    3.7500000E+033   -4.8000000E+000    1.9000000E+003 /
                          TROE /  6.4640000E-001    1.3200000E+002    1.3150000E+003    5.5660000E+003 /
   AR/ 0.700/  C2H6/ 3.000/  CH4/ 2.000/  CO/ 1.500/  CO2/ 2.000/  H2/ 2.000/  H2O/ 6.000/
C2H2 + H (+M) <=> C2H3 (+M)                         5.6000000E+012    0.0000000E+000    2.4000000E+003    
                                           LOW /    3.8000000E+040   -7.2700000E+000    7.2200000E+003 /
                          TROE /  7.5070000E-001    9.8500000E+001    1.3020000E+003    4.1670000E+003 /
   AR/ 0.700/  C2H6/ 3.000/  CH4/ 2.000/  CO/ 1.500/  CO2/ 2.000/  H2/ 2.000/  H2O/ 6.000/
C2H3 + H (+M) <=> C2H4 (+M)                         6.0800000E+012    2.7000000E-001    2.8000000E+002    
                                           LOW /    1.4000000E+030   -3.8600000E+000    3.3200000E+003 /
                          TROE /  7.8200000E-001    2.0750000E+002    2.6630000E+003    6.0950000E+003 /
   AR/ 0.700/  C2H6/ 3.000/  CH4/ 2.000/  CO/ 1.500/  CO2/ 2.000/  H2/ 2.000/  H2O/ 6.000/
C2H3 + H <=> C2H2 + H2                              3.0000000E+013    0.0000000E+000    0.0000000E+000    
C2H4 + H (+M) <=> C2H5 (+M)                         5.4000000E+011    4.5400000E-001    1.8200000E+003    
                                           LOW /    6.0000000E+041   -7.6200000E+000    6.9700000E+003 /
                          TROE /  9.7530000E-001    2.1000000E+002    9.8400000E+002    4.3740000E+003 /
   AR/ 0.700/  C2H6/ 3.000/  CH4/ 2.000/  CO/ 1.500/  CO2/ 2.000/  H2/ 2.000/  H2O/ 6.000/
C2H4 + H <=> C2H3 + H2                              1.3250000E+006    2.5300000E+000    1.2240000E+004    
C2H5 + H (+M) <=> C2H6 (+M)                         5.2100000E+017   -9.9000000E-001    1.5800000E+003    
                                           LOW /    1.9900000E+041   -7.0800000E+000    6.6850000E+003 /
                          TROE /  8.4220000E-001    1.2500000E+002    2.2190000E+003    6.8820000E+003 /
   AR/ 0.700/  C2H6/ 3.000/  CH4/ 2.000/  CO/ 1.500/  CO2/ 2.000/  H2/ 2.000/  H2O/ 6.000/
C2H5 + H <=> C2H4 + H2                              2.0000000E+012    0.0000000E+000    0.0000000E+000    
C2H6 + H <=> C2H5 + H2                              1.1500000E+008    1.9000000E+000    7.5300000E+003    
HCCO + H <=> CO + CH2(S)                            1.0000000E+014    0.0000000E+000    0.0000000E+000    
CH2CO + H <=> HCCO + H2                             5.0000000E+013    0.0000000E+000    8.0000000E+003    
CH2CO + H <=> CO + CH3                              1.1300000E+013    0.0000000E+000    3.4280000E+003    
HCCOH + H <=> CH2CO + H                             1.0000000E+013    0.0000000E+000    0.0000000E+000    
CO + H2 (+M) <=> CH2O (+M)                          4.3000000E+007    1.5000000E+000    7.9600000E+004    
                                           LOW /    5.0700000E+027   -3.4200000E+000    8.4350000E+004 /
                          TROE /  9.3200000E-001    1.9700000E+002    1.5400000E+003    1.0300000E+004 /
   AR/ 0.700/  C2H6/ 3.000/  CH4/ 2.000/  CO/ 1.500/  CO2/ 2.000/  H2/ 2.000/  H2O/ 6.000/
OH + H2 <=> H2O + H                                 2.1600000E+008    1.5100000E+000    3.4300000E+003    
2 OH (+M) <=> H2O2 (+M)                             7.4000000E+013   -3.7000000E-001    0.0000000E+000    
                                           LOW /    2.3000000E+018   -9.0000000E-001   -1.7000000E+003 /
                          TROE /  7.3460000E-001    9.4000000E+001    1.7560000E+003    5.1820000E+003 /
   AR/ 0.700/  C2H6/ 3.000/  CH4/ 2.000/  CO/ 1.500/  CO2/ 2.000/  H2/ 2.000/  H2O/ 6.000/
2 OH <=> H2O + O                                    3.5700000E+004    2.4000000E+000   -2.1100000E+003    
HO2 + OH <=> O2 + H2O                               1.4500000E+013    0.0000000E+000   -5.0000000E+002    
   DUPLICATE
H2O2 + OH <=> HO2 + H2O                             2.0000000E+012    0.0000000E+000    4.2700000E+002    
   DUPLICATE
H2O2 + OH <=> HO2 + H2O                             1.7000000E+018    0.0000000E+000    2.9410000E+004    
   DUPLICATE
OH + C <=> CO + H                                   5.0000000E+013    0.0000000E+000    0.0000000E+000    
OH + CH <=> HCO + H                                 3.0000000E+013    0.0000000E+000    0.0000000E+000    
OH + CH2 <=> CH2O + H                               2.0000000E+013    0.0000000E+000    0.0000000E+000    
OH + CH2 <=> H2O + CH                               1.1300000E+007    2.0000000E+000    3.0000000E+003    
OH + CH2(S) <=> CH2O + H                            3.0000000E+013    0.0000000E+000    0.0000000E+000    
OH + CH3 (+M) <=> CH3OH (+M)                        2.7900000E+018   -1.4300000E+000    1.3300000E+003    
                                           LOW /    4.0000000E+036   -5.9200000E+000    3.1400000E+003 /
                          TROE /  4.1200000E-001    1.9500000E+002    5.9000000E+003    6.3940000E+003 /
   C2H6/ 3.000/  CH4/ 2.000/  CO/ 1.500/  CO2/ 2.000/  H2/ 2.000/  H2O/ 6.000/
OH + CH3 <=> H2O + CH2                              5.6000000E+007    1.6000000E+000    5.4200000E+003    
OH + CH3 <=> H2O + CH2(S)                           6.4400000E+017   -1.3400000E+000    1.4170000E+003    
OH + CH4 <=> H2O + CH3                              1.0000000E+008    1.6000000E+000    3.1200000E+003    
CO + OH <=> CO2 + H                                 4.7600000E+007    1.2280000E+000    7.0000000E+001    
HCO + OH <=> CO + H2O                               5.0000000E+013    0.0000000E+000    0.0000000E+000    
CH2O + OH <=> HCO + H2O                             3.4300000E+009    1.1800000E+000   -4.4700000E+002    
CH2OH + OH <=> CH2O + H2O                           5.0000000E+012    0.0000000E+000    0.0000000E+000    
CH3O + OH <=> CH2O + H2O                            5.0000000E+012    0.0000000E+000    0.0000000E+000    
CH3OH + OH <=> CH2OH + H2O                          1.4400000E+006    2.0000000E+000   -8.4000000E+002    
CH3OH + OH <=> CH3O + H2O                           6.3000000E+006    2.0000000E+000    1.5000000E+003    
C2H + OH <=> HCCO + H                               2.0000000E+013    0.0000000E+000    0.0000000E+000    
C2H2 + OH <=> CH2CO + H                             2.1800000E-004    4.5000000E+000   -1.0000000E+003    
C2H2 + OH <=> HCCOH + H                             5.0400000E+005    2.3000000E+000    1.3500000E+004    
C2H2 + OH <=> C2H + H2O                             3.3700000E+007    2.0000000E+000    1.4000000E+004    
C2H2 + OH <=> CO + CH3                              4.8300000E-004    4.0000000E+000   -2.0000000E+003    
C2H3 + OH <=> C2H2 + H2O                            5.0000000E+012    0.0000000E+000    0.0000000E+000    
C2H4 + OH <=> C2H3 + H2O                            3.6000000E+006    2.0000000E+000    2.5000000E+003    
C2H6 + OH <=> C2H5 + H2O                            3.5400000E+006    2.1200000E+000    8.7000000E+002    
CH2CO + OH <=> HCCO + H2O                           7.5000000E+012    0.0000000E+000    2.0000000E+003    
2 HO2 <=> H2O2 + O2                                 1.3000000E+011    0.0000000E+000   -1.6300000E+003    
   DUPLICATE
2 HO2 <=> H2O2 + O2                                 4.2000000E+014    0.0000000E+000    1.2000000E+004    
   DUPLICATE
HO2 + CH2 <=> CH2O + OH                             2.0000000E+013    0.0000000E+000    0.0000000E+000    
HO2 + CH3 <=> O2 + CH4                              1.0000000E+012    0.0000000E+000    0.0000000E+000    
HO2 + CH3 <=> CH3O + OH                             3.7800000E+013    0.0000000E+000    0.0000000E+000    
HO2 + CO <=> CO2 + OH                               1.5000000E+014    0.0000000E+000    2.3600000E+004    
HO2 + CH2O <=> H2O2 + HCO                           5.6000000E+006    2.0000000E+000    1.2000000E+004    
O2 + C <=> CO + O                                   5.8000000E+013    0.0000000E+000    5.7600000E+002    
CH2 + C <=> C2H + H                                 5.0000000E+013    0.0000000E+000    0.0000000E+000    
CH3 + C <=> C2H2 + H                                5.0000000E+013    0.0000000E+000    0.0000000E+000    
O2 + CH <=> HCO + O                                 6.7100000E+013    0.0000000E+000    0.0000000E+000    
CH + H2 <=> CH2 + H                                 1.0800000E+014    0.0000000E+000    3.1100000E+003    
H2O + CH <=> CH2O + H                               5.7100000E+012    0.0000000E+000   -7.5500000E+002    
CH2 + CH <=> C2H2 + H                               4.0000000E+013    0.0000000E+000    0.0000000E+000    
CH3 + CH <=> C2H3 + H                               3.0000000E+013    0.0000000E+000    0.0000000E+000    
CH4 + CH <=> C2H4 + H                               6.0000000E+013    0.0000000E+000    0.0000000E+000    
CO + CH (+M) <=> HCCO (+M)                          5.0000000E+013    0.0000000E+000    0.0000000E+000    
                                           LOW /    2.6900000E+028   -3.7400000E+000    1.9360000E+003 /
                          TROE /  5.7570000E-001    2.3700000E+002    1.6520000E+003    5.0690000E+003 /
   AR/ 0.700/  C2H6/ 3.000/  CH4/ 2.000/  CO/ 1.500/  CO2/ 2.000/  H2/ 2.000/  H2O/ 6.000/
CO2 + CH <=> HCO + CO                               1.9000000E+014    0.0000000E+000    1.5792000E+004    
CH2O + CH <=> CH2CO + H                             9.4600000E+013    0.0000000E+000   -5.1500000E+002    
HCCO + CH <=> CO + C2H2                             5.0000000E+013    0.0000000E+000    0.0000000E+000    
O2 + CH2 => CO + OH + H                             5.0000000E+012    0.0000000E+000    1.5000000E+003    
CH2 + H2 <=> CH3 + H                                5.0000000E+005    2.0000000E+000    7.2300000E+003    
2 CH2 <=> C2H2 + H2                                 1.6000000E+015    0.0000000E+000    1.1944000E+004    
CH3 + CH2 <=> C2H4 + H                              4.0000000E+013    0.0000000E+000    0.0000000E+000    
CH4 + CH2 <=> 2 CH3                                 2.4600000E+006    2.0000000E+000    8.2700000E+003    
CO + CH2 (+M) <=> CH2CO (+M)                        8.1000000E+011    5.0000000E-001    4.5100000E+003    
                                           LOW /    2.6900000E+033   -5.1100000E+000    7.0950000E+003 /
                          TROE /  5.9070000E-001    2.7500000E+002    1.2260000E+003    5.1850000E+003 /
   AR/ 0.700/  C2H6/ 3.000/  CH4/ 2.000/  CO/ 1.500/  CO2/ 2.000/  H2/ 2.000/  H2O/ 6.000/
HCCO + CH2 <=> CO + C2H3                            3.0000000E+013    0.0000000E+000    0.0000000E+000    
N2 + CH2(S) <=> N2 + CH2                            1.5000000E+013    0.0000000E+000    6.0000000E+002    
AR + CH2(S) <=> AR + CH2                            9.0000000E+012    0.0000000E+000    6.0000000E+002    
O2 + CH2(S) <=> CO + OH + H                         2.8000000E+013    0.0000000E+000    0.0000000E+000    
O2 + CH2(S) <=> CO + H2O                            1.2000000E+013    0.0000000E+000    0.0000000E+000    
CH2(S) + H2 <=> CH3 + H                             7.0000000E+013    0.0000000E+000    0.0000000E+000    
H2O + CH2(S) (+M) <=> CH3OH (+M)                    4.8200000E+017   -1.1600000E+000    1.1450000E+003    
                                           LOW /    1.8800000E+038   -6.3600000E+000    5.0400000E+003 /
                          TROE /  6.0270000E-001    2.0800000E+002    3.9220000E+003    1.0180000E+004 /
   C2H6/ 3.000/  CH4/ 2.000/  CO/ 1.500/  CO2/ 2.000/  H2/ 2.000/  H2O/ 6.000/
H2O + CH2(S) <=> H2O + CH2                          3.0000000E+013    0.0000000E+000    0.0000000E+000    
CH3 + CH2(S) <=> C2H4 + H                           1.2000000E+013    0.0000000E+000   -5.7000000E+002    
CH4 + CH2(S) <=> 2 CH3                              1.6000000E+013    0.0000000E+000   -5.7000000E+002    
CO + CH2(S) <=> CO + CH2                            9.0000000E+012    0.0000000E+000    0.0000000E+000    
CO2 + CH2(S) <=> CO2 + CH2                          7.0000000E+012    0.0000000E+000    0.0000000E+000    
CO2 + CH2(S) <=> CH2O + CO                          1.4000000E+013    0.0000000E+000    0.0000000E+000    
C2H6 + CH2(S) <=> C2H5 + CH3                        4.0000000E+013    0.0000000E+000   -5.5000000E+002    
O2 + CH3 <=> CH3O + O                               3.5600000E+013    0.0000000E+000    3.0480000E+004    
O2 + CH3 <=> CH2O + OH                              2.3100000E+012    0.0000000E+000    2.0315000E+004    
H2O2 + CH3 <=> HO2 + CH4                            2.4500000E+004    2.4700000E+000    5.1800000E+003    
2 CH3 (+M) <=> C2H6 (+M)                            6.7700000E+016   -1.1800000E+000    6.5400000E+002    
                                           LOW /    3.4000000E+041   -7.0300000E+000    2.7620000E+003 /
                          TROE /  6.1900000E-001    7.3200000E+001    1.1800000E+003    9.9990000E+003 /
   AR/ 0.700/  C2H6/ 3.000/  CH4/ 2.000/  CO/ 1.500/  CO2/ 2.000/  H2/ 2.000/  H2O/ 6.000/
2 CH3 <=> C2H5 + H                                  6.8400000E+012    1.0000000E-001    1.0600000E+004    
HCO + CH3 <=> CO + CH4                              2.6480000E+013    0.0000000E+000    0.0000000E+000    
CH2O + CH3 <=> HCO + CH4                            3.3200000E+003    2.8100000E+000    5.8600000E+003    
CH3OH + CH3 <=> CH2OH + CH4                         3.0000000E+007    1.5000000E+000    9.9400000E+003    
CH3OH + CH3 <=> CH3O + CH4                          1.0000000E+007    1.5000000E+000    9.9400000E+003    
C2H4 + CH3 <=> C2H3 + CH4                           2.2700000E+005    2.0000000E+000    9.2000000E+003    
C2H6 + CH3 <=> C2H5 + CH4                           6.1400000E+006    1.7400000E+000    1.0450000E+004    
HCO + H2O <=> CO + H2O + H                          1.5000000E+018   -1.0000000E+000    1.7000000E+004    
HCO + M <=> CO + H + M                              1.8700000E+017   -1.0000000E+000    1.7000000E+004    
   C2H6/ 3.000/  CH4/ 2.000/  CO/ 1.500/  CO2/ 2.000/  H2/ 2.000/  H2O/ 0.000/
O2 + HCO <=> HO2 + CO                               1.3450000E+013    0.0000000E+000    4.0000000E+002    
O2 + CH2OH <=> HO2 + CH2O                           1.8000000E+013    0.0000000E+000    9.0000000E+002    
O2 + CH3O <=> HO2 + CH2O                            4.2800000E-013    7.6000000E+000   -3.5300000E+003    
O2 + C2H <=> HCO + CO                               1.0000000E+013    0.0000000E+000   -7.5500000E+002    
C2H + H2 <=> C2H2 + H                               5.6800000E+010    9.0000000E-001    1.9930000E+003    
O2 + C2H3 <=> CH2O + HCO                            4.5800000E+016   -1.3900000E+000    1.0150000E+003    
C2H4 (+M) <=> C2H2 + H2 (+M)                        8.0000000E+012    4.4000000E-001    8.6770000E+004    
                                           LOW /    1.5800000E+051   -9.3000000E+000    9.7800000E+004 /
                          TROE /  7.3450000E-001    1.8000000E+002    1.0350000E+003    5.4170000E+003 /
   AR/ 0.700/  C2H6/ 3.000/  CH4/ 2.000/  CO/ 1.500/  CO2/ 2.000/  H2/ 2.000/  H2O/ 6.000/
O2 + C2H5 <=> HO2 + C2H4                            8.4000000E+011    0.0000000E+000    3.8750000E+003    
HCCO + O2 <=> 2 CO + OH                             3.2000000E+012    0.0000000E+000    8.5400000E+002    
2 HCCO <=> 2 CO + C2H2                              1.0000000E+013    0.0000000E+000    0.0000000E+000    
NO + N <=> N2 + O                                   2.7000000E+013    0.0000000E+000    3.5500000E+002    
O2 + N <=> NO + O                                   9.0000000E+009    1.0000000E+000    6.5000000E+003    
OH + N <=> NO + H                                   3.3600000E+013    0.0000000E+000    3.8500000E+002    
N2O + O <=> O2 + N2                                 1.4000000E+012    0.0000000E+000    1.0810000E+004    
N2O + O <=> 2 NO                                    2.9000000E+013    0.0000000E+000    2.3150000E+004    
N2O + H <=> N2 + OH                                 3.8700000E+014    0.0000000E+000    1.8880000E+004    
N2O + OH <=> HO2 + N2                               2.0000000E+012    0.0000000E+000    2.1060000E+004    
N2O (+M) <=> N2 + O (+M)                            7.9100000E+010    0.0000000E+000    5.6020000E+004    
                                           LOW /    6.3700000E+014    0.0000000E+000    5.6640000E+004 /
   AR/ 0.625/  C2H6/ 3.000/  CH4/ 2.000/  CO/ 1.500/  CO2/ 2.000/  H2/ 2.000/  H2O/ 6.000/
HO2 + NO <=> NO2 + OH                               2.1100000E+012    0.0000000E+000   -4.8000000E+002    
NO + O + M <=> NO2 + M                              1.0600000E+020   -1.4100000E+000    0.0000000E+000    
   AR/ 0.700/  C2H6/ 3.000/  CH4/ 2.000/  CO/ 1.500/  CO2/ 2.000/  H2/ 2.000/  H2O/ 6.000/
NO2 + O <=> O2 + NO                                 3.9000000E+012    0.0000000E+000   -2.4000000E+002    
NO2 + H <=> NO + OH                                 1.3200000E+014    0.0000000E+000    3.6000000E+002    
O + NH <=> NO + H                                   4.0000000E+013    0.0000000E+000    0.0000000E+000    
NH + H <=> N + H2                                   3.2000000E+013    0.0000000E+000    3.3000000E+002    
OH + NH <=> HNO + H                                 2.0000000E+013    0.0000000E+000    0.0000000E+000    
OH + NH <=> H2O + N                                 2.0000000E+009    1.2000000E+000    0.0000000E+000    
O2 + NH <=> HNO + O                                 4.6100000E+005    2.0000000E+000    6.5000000E+003    
O2 + NH <=> NO + OH                                 1.2800000E+006    1.5000000E+000    1.0000000E+002    
NH + N <=> N2 + H                                   1.5000000E+013    0.0000000E+000    0.0000000E+000    
H2O + NH <=> HNO + H2                               2.0000000E+013    0.0000000E+000    1.3850000E+004    
NO + NH <=> N2 + OH                                 2.1600000E+013   -2.3000000E-001    0.0000000E+000    
NO + NH <=> N2O + H                                 3.6500000E+014   -4.5000000E-001    0.0000000E+000    
NH2 + O <=> OH + NH                                 3.0000000E+012    0.0000000E+000    0.0000000E+000    
NH2 + O <=> HNO + H                                 3.9000000E+013    0.0000000E+000    0.0000000E+000    
NH2 + H <=> NH + H2                                 4.0000000E+013    0.0000000E+000    3.6500000E+003    
OH + NH2 <=> H2O + NH                               9.0000000E+007    1.5000000E+000   -4.6000000E+002    
NNH <=> N2 + H                                      3.3000000E+008    0.0000000E+000    0.0000000E+000    
NNH + M <=> N2 + H + M                              1.3000000E+014   -1.1000000E-001    4.9800000E+003    
   AR/ 0.700/  C2H6/ 3.000/  CH4/ 2.000/  CO/ 1.500/  CO2/ 2.000/  H2/ 2.000/  H2O/ 6.000/
O2 + NNH <=> HO2 + N2                               5.0000000E+012    0.0000000E+000    0.0000000E+000    