!---------------------------------------------------------------------------
!  
!---------------------------------------------------------------------------
ELEMENTS
O H C N Ar
END
SPECIES
H2              H               O               O2              OH              
H2O             HO2             H2O2            CH2             
CH2(S)          CH3             CH4             CO              
CO2             HCO             CH2O            CH3O            
C2H4            C2H5            C2H6            N2              C3H7            
C3H8            
END
!---------------------------------------------------------------------------
!  
!---------------------------------------------------------------------------
THERMO ALL
   300.000  1000.000  5000.000
H2                      H   2               G   200.000  3500.000  1000.000    1
 3.33727920e+00-4.94024731e-05 4.99456778e-07-1.79566394e-10 2.00255376e-14    2
-9.50158922e+02-3.20502331e+00 2.34433112e+00 7.98052075e-03-1.94781510e-05    3
 2.01572094e-08-7.37611761e-12-9.17935173e+02 6.83010238e-01                   4
H                       H   1               G   200.000  3500.000  1000.000    1
 2.50000001e+00-2.30842973e-11 1.61561948e-14-4.73515235e-18 4.98197357e-22    2
 2.54736599e+04-4.46682914e-01 2.50000000e+00 7.05332819e-13-1.99591964e-15    3
 2.30081632e-18-9.27732332e-22 2.54736599e+04-4.46682853e-01                   4
O                       O   1               G   200.000  3500.000  1000.000    1
 2.56942078e+00-8.59741137e-05 4.19484589e-08-1.00177799e-11 1.22833691e-15    2
 2.92175791e+04 4.78433864e+00 3.16826710e+00-3.27931884e-03 6.64306396e-06    3
-6.12806624e-09 2.11265971e-12 2.91222592e+04 2.05193346e+00                   4
O2                      O   2               G   200.000  3500.000  1000.000    1
 3.28253784e+00 1.48308754e-03-7.57966669e-07 2.09470555e-10-2.16717794e-14    2
-1.08845772e+03 5.45323129e+00 3.78245636e+00-2.99673416e-03 9.84730201e-06    3
-9.68129509e-09 3.24372837e-12-1.06394356e+03 3.65767573e+00                   4
OH                      H   1O   1          G   200.000  3500.000  1000.000    1
 3.09288767e+00 5.48429716e-04 1.26505228e-07-8.79461556e-11 1.17412376e-14    2
 3.85865700e+03 4.47669610e+00 3.99201543e+00-2.40131752e-03 4.61793841e-06    3
-3.88113333e-09 1.36411470e-12 3.61508056e+03-1.03925458e-01                   4
H2O                     H   2O   1          G   200.000  3500.000  1000.000    1
 3.03399249e+00 2.17691804e-03-1.64072518e-07-9.70419870e-11 1.68200992e-14    2
-3.00042971e+04 4.96677010e+00 4.19864056e+00-2.03643410e-03 6.52040211e-06    3
-5.48797062e-09 1.77197817e-12-3.02937267e+04-8.49032208e-01                   4
HO2                     H   1O   2          G   200.000  3500.000  1000.000    1
 4.01721090e+00 2.23982013e-03-6.33658150e-07 1.14246370e-10-1.07908535e-14    2
 1.11856713e+02 3.78510215e+00 4.30179801e+00-4.74912051e-03 2.11582891e-05    3
-2.42763894e-08 9.29225124e-12 2.94808040e+02 3.71666245e+00                   4
H2O2                    H   2O   2          G   200.000  3500.000  1000.000    1
 4.16500285e+00 4.90831694e-03-1.90139225e-06 3.71185986e-10-2.87908305e-14    2
-1.78617877e+04 2.91615662e+00 4.27611269e+00-5.42822417e-04 1.67335701e-05    3
-2.15770813e-08 8.62454363e-12-1.77025821e+04 3.43505074e+00                   4
CH2                     C   1H   2          G   200.000  3500.000  1000.000    1
 2.87410113e+00 3.65639292e-03-1.40894597e-06 2.60179549e-10-1.87727567e-14    2
 4.62636040e+04 6.17119324e+00 3.76267867e+00 9.68872143e-04 2.79489841e-06    3
-3.85091153e-09 1.68741719e-12 4.60040401e+04 1.56253185e+00                   4
CH2(S)                  C   1H   2          G   200.000  3500.000  1000.000    1
 2.29203842e+00 4.65588637e-03-2.01191947e-06 4.17906000e-10-3.39716365e-14    2
 5.09259997e+04 8.62650169e+00 4.19860411e+00-2.36661419e-03 8.23296220e-06    3
-6.68815981e-09 1.94314737e-12 5.04968163e+04-7.69118967e-01                   4
CH3                     C   1H   3          G   200.000  3500.000  1000.000    1
 2.28571772e+00 7.23990037e-03-2.98714348e-06 5.95684644e-10-4.67154394e-14    2
 1.67755843e+04 8.48007179e+00 3.67359040e+00 2.01095175e-03 5.73021856e-06    3
-6.87117425e-09 2.54385734e-12 1.64449988e+04 1.60456433e+00                   4
CH4                     C   1H   4          G   200.000  3500.000  1000.000    1
 7.48514950e-02 1.33909467e-02-5.73285809e-06 1.22292535e-09-1.01815230e-13    2
-9.46834459e+03 1.84373180e+01 5.14987613e+00-1.36709788e-02 4.91800599e-05    3
-4.84743026e-08 1.66693956e-11-1.02466476e+04-4.64130376e+00                   4
CO                      C   1O   1          G   200.000  3500.000  1000.000    1
 2.71518561e+00 2.06252743e-03-9.98825771e-07 2.30053008e-10-2.03647716e-14    2
-1.41518724e+04 7.81868772e+00 3.57953347e+00-6.10353680e-04 1.01681433e-06    3
 9.07005884e-10-9.04424499e-13-1.43440860e+04 3.50840928e+00                   4
CO2                     C   1O   2          G   200.000  3500.000  1000.000    1
 3.85746029e+00 4.41437026e-03-2.21481404e-06 5.23490188e-10-4.72084164e-14    2
-4.87591660e+04 2.27163806e+00 2.35677352e+00 8.98459677e-03-7.12356269e-06    3
 2.45919022e-09-1.43699548e-13-4.83719697e+04 9.90105222e+00                   4
HCO                     C   1H   1O   1     G   200.000  3500.000  1000.000    1
 2.77217438e+00 4.95695526e-03-2.48445613e-06 5.89161778e-10-5.33508711e-14    2
 4.01191815e+03 9.79834492e+00 4.22118584e+00-3.24392532e-03 1.37799446e-05    3
-1.33144093e-08 4.33768865e-12 3.83956496e+03 3.39437243e+00                   4
CH2O                    C   1H   2O   1     G   200.000  3500.000  1000.000    1
 1.76069008e+00 9.20000082e-03-4.42258813e-06 1.00641212e-09-8.83855640e-14    2
-1.39958323e+04 1.36563230e+01 4.79372315e+00-9.90833369e-03 3.73220008e-05    3
-3.79285261e-08 1.31772652e-11-1.43089567e+04 6.02812900e-01                   4
CH3O                    C   1H   3O   1     G   300.000  3000.000  1000.000    1
 3.77079900e+00 7.87149700e-03-2.65638400e-06 3.94443100e-10-2.11261600e-14    2
 1.27832520e+02 2.92957500e+00 2.10620400e+00 7.21659500e-03 5.33847200e-06    3
-7.37763600e-09 2.07561000e-12 9.78601100e+02 1.31521770e+01                   4
C2H4                    C   2H   4          G   200.000  3500.000  1000.000    1
 2.03611116e+00 1.46454151e-02-6.71077915e-06 1.47222923e-09-1.25706061e-13    2
 4.93988614e+03 1.03053693e+01 3.95920148e+00-7.57052247e-03 5.70990292e-05    3
-6.91588753e-08 2.69884373e-11 5.08977593e+03 4.09733096e+00                   4
C2H5                    C   2H   5          G   200.000  3500.000  1000.000    1
 1.95465642e+00 1.73972722e-02-7.98206668e-06 1.75217689e-09-1.49641576e-13    2
 1.28575200e+04 1.34624343e+01 4.30646568e+00-4.18658892e-03 4.97142807e-05    3
-5.99126606e-08 2.30509004e-11 1.28416265e+04 4.70720924e+00                   4
C2H6                    C   2H   6          G   200.000  3500.000  1000.000    1
 1.07188150e+00 2.16852677e-02-1.00256067e-05 2.21412001e-09-1.90002890e-13    2
-1.14263932e+04 1.51156107e+01 4.29142492e+00-5.50154270e-03 5.99438288e-05    3
-7.08466285e-08 2.68685771e-11-1.15222055e+04 2.66682316e+00                   4
N2                      N   2               G   300.000  5000.000  1000.000    1
 2.92664000e+00 1.48797680e-03-5.68476000e-07 1.00970380e-10-6.75335100e-15    2
-9.22797700e+02 5.98052800e+00 3.29867700e+00 1.40824040e-03-3.96322200e-06    3
 5.64151500e-09-2.44485400e-12-1.02089990e+03 3.95037200e+00                   4
C3H7                    C   3H   7          G   300.000  5000.000  1000.000    1
 7.70269870e+00 1.60442030e-02-5.28332200e-06 7.62985900e-10-3.93922840e-14    2
 8.29843360e+03-1.54801800e+01 1.05155180e+00 2.59919800e-02 2.38005400e-06    3
-1.96095690e-08 9.37324700e-12 1.06318630e+04 2.11225590e+01                   4
C3H8                    C   3H   8          G   300.000  5000.000  1000.000    1
 7.53413680e+00 1.88722390e-02-6.27184910e-06 9.14756490e-10-4.78380690e-14    2
-1.64675160e+04-1.78923490e+01 9.33553810e-01 2.64245790e-02 6.10597270e-06    3
-2.19774990e-08 9.51492530e-12-1.39585200e+04 1.92016910e+01                   4
END
!---------------------------------------------------------------------------
!  
!---------------------------------------------------------------------------
REACTIONS
2O+M<=>O2+M                                        1.200E+17   -1.000      -0.00
C2H6/ 3.0/ CH4/ 2.0/ CO/ 1.75/ CO2/ 3.6/ H2/ 2.4/ H2O/ 15.4/
H+O+M<=>OH+M                                       5.002E+17   -1.000       0.00
C2H6/ 3.0/ CH4/ 2.0/ CO/ 1.5/ CO2/ 2.0/ H2/ 2.0/ H2O/ 6.0/
H2+O<=>H+OH                                        3.878E+04    2.717    6260.00
HO2+O<=>O2+OH                                      1.994E+13   -0.017      -0.00
H2O2+O<=>HO2+OH                                    9.615E+06    1.995    4000.00
CH2+O<=>H+HCO                                      8.017E+13    0.000       0.00
CH2(S)+O<=>CO+H2                                   1.500E+13    0.002      -0.00
CH2(S)+O<=>H+HCO                                   1.500E+13    0.001      -0.00
CH3+O<=>CH2O+H                                     5.045E+13   -0.024      -0.00
CH4+O<=>CH3+OH                                     1.002E+09    1.472    8600.00
CO+O(+M)<=>CO2(+M)                                 1.79938E+10    0.000    2385.00
     LOW  /  6.01792E+14  0.000  3000.00/
C2H6/ 3.0/ CH4/ 2.0/ CO/ 1.5/ CO2/ 3.5/ H2/ 2.0/ H2O/ 6.0/ O2/ 6.0/
HCO+O<=>CO+OH                                      3.004E+13    0.001      -0.00
HCO+O<=>CO2+H                                      3.002E+13    0.002       0.00
CH2O+O<=>HCO+OH                                    3.927E+13    0.021    3540.00
CH3O+O<=>CH2O+OH                                   1.001E+13    0.001       0.00
C2H4+O<=>CH3+HCO                                   1.280E+07    1.905     220.00
C2H5+O<=>CH2O+CH3                                  2.242E+13   -0.004      -0.00
C2H6+O<=>C2H5+OH                                   9.039E+07    1.933    5690.00
CO+O2<=>CO2+O                                      2.496E+12   -0.001   47800.00
CH2O+O2<=>HCO+HO2                                  1.004E+14    0.004   40000.00
H+O2+M<=>HO2+M                                     2.787E+18   -0.866       0.00
C2H6/ 1.5/ CO/ 0.75/ CO2/ 1.5/ H2O/ 0.0/ N2/ 0.0/ O2/ 0.0/
H+2O2<=>HO2+O2                                     2.073E+19   -1.242       0.00
H+H2O+O2<=>H2O+HO2                                 1.135E+19   -0.729       0.00
H+N2+O2<=>HO2+N2                                   2.593E+19   -1.241       0.00
H+O2<=>O+OH                                        2.692E+16   -0.653   17041.00
2H+M<=>H2+M                                        9.999E+17   -0.999       0.00
C2H6/ 3.0/ CH4/ 2.0/ CO2/ 0.0/ H2/ 0.0/ H2O/ 0.0/
2H+H2<=>2H2                                        9.000E+16   -0.600       0.00
2H+H2O<=>H2+H2O                                    6.002E+19   -1.249       0.00
CO2+2H<=>CO2+H2                                    5.500E+20   -2.000       0.00
H+OH+M<=>H2O+M                                     2.203E+22   -2.002       0.00
C2H6/ 3.0/ CH4/ 2.0/ H2/ 0.73/ H2O/ 3.65/
H+HO2<=>H2O+O                                      3.968E+12   -0.001     671.00
H+HO2<=>H2+O2                                      4.446E+13   -0.018    1068.00
H+HO2<=>2OH                                        8.346E+13   -0.015     635.00
H+H2O2<=>H2+HO2                                    1.210E+07    2.015    5200.00
H+H2O2<=>H2O+OH                                    9.992E+12    0.011    3600.00
CH2+H(+M)<=>CH3(+M)                                6.00603E+14    0.002       0.00
     LOW  /  1.04104E+26  -2.758  1600.00/
     TROE/   0.562  91.0  5836.0  8552.0 /
C2H6/ 3.0/ CH4/ 2.0/ CO/ 1.5/ CO2/ 2.0/ H2/ 2.0/ H2O/ 6.0/
CH3+H(+M)<=>CH4(+M)                                1.39272E+16   -0.535     536.00
     LOW  /  2.62513E+33  -4.761  2440.00/
     TROE/   0.783  74.0  2941.0  6964.0 /
C2H6/ 3.0/ CH4/ 3.0/ CO/ 1.5/ CO2/ 2.0/ H2/ 2.0/ H2O/ 6.0/
CH4+H<=>CH3+H2                                     6.653E+08    1.629   10840.00
H+HCO(+M)<=>CH2O(+M)                               1.09346E+12    0.496    -260.00
     LOW  /  2.47784E+24  -2.554  425.00/
     TROE/   0.7824  271.0  2755.0  6570.0 /
C2H6/ 3.0/ CH4/ 2.0/ CO/ 1.5/ CO2/ 2.0/ H2/ 2.0/ H2O/ 6.0/
H+HCO<=>CO+H2                                      7.346E+13    0.000       0.00
CH2O+H(+M)<=>CH3O(+M)                              5.36371E+11    0.444    2600.00
     LOW  /  2.18522E+30  -4.810  5560.00/
     TROE/   0.758  94.0  1555.0  4200.0 /
C2H6/ 3.0/ CH4/ 2.0/ CO/ 1.5/ CO2/ 2.0/ H2/ 2.0/ H2O/ 6.0/
CH2O+H<=>H2+HCO                                    5.686E+07    1.872    2742.00
CH3O+H<=>CH2O+H2                                   1.999E+13    0.004      -0.00
CH3O+H<=>CH3+OH                                    1.499E+12    0.508    -110.00
CH3O+H<=>CH2(S)+H2O                                2.616E+14   -0.228    1070.00
C2H4+H(+M)<=>C2H5(+M)                              5.40108E+11    0.451    1820.00
     LOW  /  6.00120E+41  -7.623  6970.00/
     TROE/   0.9753  209.99999999999997  983.9999999999999  4374.0 /
C2H6/ 3.0/ CH4/ 2.0/ CO/ 1.5/ CO2/ 2.0/ H2/ 2.0/ H2O/ 6.0/
C2H5+H(+M)<=>C2H6(+M)                              5.13452E+17   -1.036    1580.00
     LOW  /  1.96117E+41  -7.126  6685.00/
     TROE/   0.8422  125.0  2219.0  6882.0 /
C2H6/ 3.0/ CH4/ 2.0/ CO/ 1.5/ CO2/ 2.0/ H2/ 2.0/ H2O/ 6.0/
C2H5+H<=>C2H4+H2                                   1.999E+12   -0.003      -0.00
C2H6+H<=>C2H5+H2                                   1.159E+08    1.904    7530.00
CO+H2(+M)<=>CH2O(+M)                               4.29834E+07    1.494   79600.00
     LOW  /  5.06804E+27  -3.426  84350.00/
     TROE/   0.932  197.00000000000003  1540.0  10300.0 /
C2H6/ 3.0/ CH4/ 2.0/ CO/ 1.5/ CO2/ 2.0/ H2/ 2.0/ H2O/ 6.0/
H2+OH<=>H+H2O                                      2.216E+08    1.563    3430.00
2OH(+M)<=>H2O2(+M)                                 7.30675E+13   -0.385       0.00
     LOW  /  2.27102E+18  -0.915  -1700.00/
     TROE/   0.7346  94.0  1756.0  5182.0 /
C2H6/ 3.0/ CH4/ 2.0/ CO/ 1.5/ CO2/ 2.0/ H2/ 2.0/ H2O/ 6.0/
2OH<=>H2O+O                                        3.566E+04    2.395   -2110.00
HO2+OH<=>H2O+O2                                    1.424E+13   -0.042    -500.00
 DUPLICATE
H2O2+OH<=>H2O+HO2                                  1.994E+12   -0.023     427.00
 DUPLICATE
H2O2+OH<=>H2O+HO2                                  1.695E+18   -0.024   29410.00
 DUPLICATE
CH2+OH<=>CH2O+H                                    2.004E+13   -0.001      -0.00
CH2(S)+OH<=>CH2O+H                                 3.005E+13    0.003       0.00
CH3+OH<=>CH2+H2O                                   5.619E+07    1.612    5420.00
CH3+OH<=>CH2(S)+H2O                                6.444E+17   -1.336    1417.00
CH4+OH<=>CH3+H2O                                   1.012E+08    1.615    3120.00
CO+OH<=>CO2+H                                      4.788E+07    1.259      70.00
HCO+OH<=>CO+H2O                                    5.002E+13   -0.009      -0.00
CH2O+OH<=>H2O+HCO                                  3.438E+09    1.183    -447.00
CH3O+OH<=>CH2O+H2O                                 5.001E+12    0.001      -0.00
C2H6+OH<=>C2H5+H2O                                 3.544E+06    2.122     870.00
2HO2<=>H2O2+O2                                     1.316E+11    0.022   -1630.00
 DUPLICATE
2HO2<=>H2O2+O2                                     4.168E+14   -0.009   12000.00
 DUPLICATE
CH2+HO2<=>CH2O+OH                                  2.003E+13   -0.001      -0.00
CH3+HO2<=>CH4+O2                                   9.909E+11   -0.021       0.00
CH3+HO2<=>CH3O+OH                                  3.766E+13   -0.003      -0.00
CO+HO2<=>CO2+OH                                    1.506E+14    0.020   23600.00
CH2O+HO2<=>H2O2+HCO                                5.670E+06    2.016   12000.00
CH2+O2=>CO+H+OH                                    5.016E+12    0.008    1500.00
CH2+H2<=>CH3+H                                     4.996E+05    2.002    7230.00
CH2+CH3<=>C2H4+H                                   3.992E+13    0.006      -0.00
CH2+CH4<=>2CH3                                     2.459E+06    2.003    8270.00
CH2(S)+N2<=>CH2+N2                                 1.498E+13    0.009     600.00
CH2(S)+O2<=>CO+H+OH                                2.804E+13    0.005       0.00
CH2(S)+O2<=>CO+H2O                                 1.198E+13   -0.013      -0.00
CH2(S)+H2<=>CH3+H                                  6.993E+13    0.003       0.00
CH2(S)+H2O<=>CH2+H2O                               3.000E+13   -0.000       0.00
CH2(S)+CH3<=>C2H4+H                                1.201E+13    0.001    -570.00
CH2(S)+CH4<=>2CH3                                  1.602E+13    0.016    -570.00
CH2(S)+CO<=>CH2+CO                                 8.991E+12   -0.000      -0.00
CH2(S)+CO2<=>CH2+CO2                               6.996E+12   -0.000       0.00
CH2(S)+CO2<=>CH2O+CO                               1.402E+13    0.002       0.00
C2H6+CH2(S)<=>C2H5+CH3                             3.997E+13   -0.002    -550.00
CH3+O2<=>CH3O+O                                    3.522E+13   -0.013   30480.00
CH3+O2<=>CH2O+OH                                   2.325E+12    0.008   20315.00
CH3+H2O2<=>CH4+HO2                                 2.481E+04    2.484    5180.00
2CH3(+M)<=>C2H6(+M)                                6.81123E+16   -1.174     654.00
     LOW  /  3.42071E+41  -7.024  2762.00/
     TROE/   0.619  73.2  1180.0  9999.0 /
C2H6/ 3.0/ CH4/ 2.0/ CO/ 1.5/ CO2/ 2.0/ H2/ 2.0/ H2O/ 6.0/
2CH3<=>C2H5+H                                      6.652E+12    0.047   10600.00
CH3+HCO<=>CH4+CO                                   2.634E+13   -0.021      -0.00
CH2O+CH3<=>CH4+HCO                                 3.254E+03    2.785    5860.00
C2H6+CH3<=>C2H5+CH4                                6.099E+06    1.733   10450.00
H2O+HCO<=>CO+H+H2O                                 1.482E+18   -1.044   17000.00
HCO+M<=>CO+H+M                                     1.847E+17   -1.024   17000.00
C2H6/ 3.0/ CH4/ 2.0/ CO/ 1.5/ CO2/ 2.0/ H2/ 2.0/ H2O/ 0.0/
HCO+O2<=>CO+HO2                                    1.371E+13    0.032     400.00
CH3O+O2<=>CH2O+HO2                                 4.304E-13    7.608   -3530.00
C2H5+O2<=>C2H4+HO2                                 8.564E+11    0.032    3875.00
CH3+O=>CO+H+H2                                     3.379E+13   -0.006      -0.00
HO2+OH<=>H2O+O2                                    4.907E+15   -0.033   17330.00
 DUPLICATE
CH3+OH=>CH2O+H2                                    8.006E+09    0.495   -1755.00
CH2+O2=>CO2+2H                                     5.808E+12    0.001    1500.00
CH2+O2<=>CH2O+O                                    2.404E+12   -0.005    1500.00
CH2(S)+H2O=>CH2O+H2                                6.825E+10    0.251    -935.00
C2H5+CH3(+M)<=>C3H8(+M)                            9.41095E+12   -0.002      -0.00
     LOW  /  2.70453E+74  -16.822  13065.00/
     TROE/   0.1527  291.0  2742.0  7748.0 /
C2H6/ 3.0/ CH4/ 2.0/ CO/ 1.5/ CO2/ 2.0/ H2/ 2.0/ H2O/ 6.0/
C3H8+O<=>C3H7+OH                                   1.913E+05    2.642    3716.00
C3H8+H<=>C3H7+H2                                   1.292E+06    2.485    6756.00
C3H8+OH<=>C3H7+H2O                                 3.156E+07    1.784     934.00
C3H7+H2O2<=>C3H8+HO2                               3.814E+02    2.738    1500.00
C3H8+CH3<=>C3H7+CH4                                9.017E-01    3.648    7154.00
C2H4+CH3(+M)<=>C3H7(+M)                            2.53750E+06    1.558    5700.00
     LOW  /  2.98530E+63  -14.642  18170.00/
     TROE/   0.1894  277.0  8748.0  7891.0 /
C2H6/ 3.0/ CH4/ 2.0/ CO/ 1.5/ CO2/ 2.0/ H2/ 2.0/ H2O/ 6.0/
C3H7+O<=>C2H5+CH2O                                 9.658E+13   -0.002       0.00
C3H7+H(+M)<=>C3H8(+M)                              3.60886E+13   -0.003      -0.00
     LOW  /  4.41494E+61  -13.548  11357.00/
     TROE/   0.315  369.0  3284.9999999999995  6667.0 /
C2H6/ 3.0/ CH4/ 2.0/ CO/ 1.5/ CO2/ 2.0/ H2/ 2.0/ H2O/ 6.0/
C3H7+H<=>C2H5+CH3                                  4.057E+06    2.196     890.00
C3H7+HO2<=>C3H8+O2                                 2.550E+10    0.275    -943.00
C3H7+HO2=>C2H5+CH2O+OH                             2.423E+13    0.044       0.00
C3H7+CH3<=>2C2H5                                   1.931E+13   -0.300       0.00
END