! Chemkin file converted from Cantera solution object
! 

ELEMENTS
H  C  O  N
END


SPECIES
C7H16       O2          N2          CO2         H2O         CO
H2          CH4         C2H4        H2O2        HO2         OH
H           O           CH3         CH2         CH2O        HCO
C7H15-1     C7H15-2     C7H15O2     C7H14O2H    C7H14O2HO2  C7KET12
C5H11CHO    C5H11CO     C5H11       C4H9        C3H7        C3H6
C2H3        C2H5        NO          N
END


REACTIONS  CAL/MOLE  MOLES
C7H16 + H <=> C7H15-1 + H2                          5.6000000E+007    2.0000000E+000    7.6670000E+003    
C7H16 + H <=> C7H15-2 + H2                          4.3800000E+007    2.0000000E+000    4.7500000E+003    
C7H16 + OH <=> C7H15-1 + H2O                        8.6100000E+009    1.1000000E+000    1.8150000E+003    
C7H16 + OH <=> C7H15-2 + H2O                        4.5000000E+009    1.3000000E+000    6.9050000E+002    
C7H16 + HO2 <=> C7H15-1 + H2O2                      1.1200000E+013    0.0000000E+000    1.9300000E+004    
C7H16 + HO2 <=> C7H15-2 + H2O2                      1.6500000E+013    0.0000000E+000    1.6950000E+004    
C7H16 + O2 <=> C7H15-1 + HO2                        2.5000000E+013    0.0000000E+000    4.8810000E+004    
C7H16 + O2 <=> C7H15-2 + HO2                        2.0000000E+014    0.0000000E+000    4.7380000E+004    
C7H15-1 + O2 <=> C7H15O2                            2.0000000E+012    0.0000000E+000    0.0000000E+000    
C7H15-2 + O2 <=> C7H15O2                            2.0000000E+012    0.0000000E+000    0.0000000E+000    
C7H15O2 <=> C7H14O2H                                6.0000000E+011    0.0000000E+000    2.0380000E+004    
C7H14O2H + O2 <=> C7H14O2HO2                        4.6000000E+011    0.0000000E+000    0.0000000E+000    
C7H14O2HO2 <=> C7KET12 + OH                         1.0000000E+009    0.0000000E+000    7.4800000E+003    
C7KET12 <=> C5H11CHO + CH2O + O                     1.0500000E+016    0.0000000E+000    4.1100000E+004    
C5H11CHO + O2 <=> C5H11CO + HO2                     2.0000000E+013    5.0000000E-001    4.2200000E+004    
C5H11CHO + OH <=> C5H11CO + H2O                     1.0000000E+013    0.0000000E+000    0.0000000E+000    
C5H11CHO + H <=> C5H11CO + H2                       4.0000000E+013    0.0000000E+000    4.2000000E+003    
C5H11CHO + O <=> C5H11CO + OH                       5.0000000E+012    0.0000000E+000    1.7900000E+003    
C5H11CHO + HO2 <=> C5H11CO + H2O2                   2.8000000E+012    0.0000000E+000    1.3600000E+004    
C5H11CHO + CH3 <=> C5H11CO + CH4                    1.7000000E+012    0.0000000E+000    8.4400000E+003    
C5H11CO <=> C5H11 + CO                              1.0000000E+011    0.0000000E+000    9.6000000E+003    
C5H11 <=> C3H7 + C2H4                               3.2000000E+013    0.0000000E+000    2.8300000E+004    
C7H15-1 <=> C5H11 + C2H4                            2.5000000E+013    0.0000000E+000    2.8810000E+004    
C7H15-2 <=> C4H9 + C3H6                             2.2000000E+013    0.0000000E+000    2.8100000E+004    
C7H15-1 <=> C7H15-2                                 3.6000000E+016    0.0000000E+000    8.0700000E+004    
C4H9 <=> C2H5 + C2H4                                2.5000000E+013    0.0000000E+000    2.8810000E+004    
C3H7 <=> C2H4 + CH3                                 9.6000000E+013    0.0000000E+000    3.0950000E+004    
C3H7 <=> C3H6 + H                                   1.2500000E+014    0.0000000E+000    3.6900000E+004    
C3H7 + O2 <=> C3H6 + HO2                            1.0000000E+012    0.0000000E+000    4.9800000E+003    
C3H6 <=> C2H3 + CH3                                 3.1500000E+015    0.0000000E+000    8.5500000E+004    
O2 + CH3 <=> CH2O + OH                              3.8000000E+011    0.0000000E+000    9.0000000E+003    
O + CH3 <=> CH2O + H                                8.0000000E+013    0.0000000E+000    0.0000000E+000    
OH + CH3 <=> H2O + CH2                              7.5000000E+006    2.0000000E+000    5.0000000E+003    
OH + CH3 <=> CH2O + H2                              4.0000000E+012    0.0000000E+000    0.0000000E+000    
CO + O + M <=> CO2 + M                              6.1700000E+014    0.0000000E+000    3.0000000E+003    
CO + OH <=> CO2 + H                                 3.5100000E+007    1.3000000E+000   -7.5800000E+002    
O2 + CO <=> CO2 + O                                 1.6000000E+013    0.0000000E+000    4.1000000E+004    
HO2 + CO <=> CO2 + OH                               5.8000000E+013    0.0000000E+000    2.2930000E+004    
O2 + H2 <=> 2 OH                                    1.7000000E+013    0.0000000E+000    4.7780000E+004    
OH + H2 <=> H2O + H                                 1.1700000E+009    1.3000000E+000    3.6260000E+003    
OH + O <=> O2 + H                                   4.0000000E+014   -5.0000000E-001    0.0000000E+000    
O + H2 <=> OH + H                                   5.0600000E+004    2.6700000E+000    6.2900000E+003    
HO2 + H <=> H2O + O                                 3.1000000E+010    0.0000000E+000    3.5900000E+003    
OH + O + M <=> HO2 + M                              1.0000000E+016    0.0000000E+000    0.0000000E+000    
   CO/ 2.000/  CO2/ 5.000/  H2/ 3.300/  H2O/ 21.000/
O2 + H + M <=> HO2 + M                              3.6000000E+017   -7.2000000E-001    0.0000000E+000    
   CO/ 2.000/  CO2/ 5.000/  H2/ 3.300/  H2O/ 21.000/
HO2 + OH <=> O2 + H2O                               7.5000000E+012    0.0000000E+000    0.0000000E+000    
HO2 + H <=> 2 OH                                    1.7000000E+014    0.0000000E+000    8.7500000E+002    
HO2 + O <=> O2 + OH                                 1.4000000E+013    0.0000000E+000    1.0730000E+003    
2 OH <=> H2O + O                                    6.0000000E+008    1.3000000E+000    0.0000000E+000    
2 H + M <=> H2 + M                                  1.0000000E+018   -1.0000000E+000    0.0000000E+000    
   CO2/ 0.000/  H2/ 0.000/  H2O/ 0.000/
H2 + 2 H <=> 2 H2                                   9.2000000E+016   -6.0000000E-001    0.0000000E+000    
H2O + 2 H <=> H2O + H2                              6.0000000E+019   -1.2500000E+000    0.0000000E+000    
CO2 + 2 H <=> CO2 + H2                              5.4900000E+020   -2.0000000E+000    0.0000000E+000    
OH + H + M <=> H2O + M                              1.6000000E+022   -2.0000000E+000    0.0000000E+000    
O + H + M <=> OH + M                                6.2000000E+016   -6.0000000E-001    0.0000000E+000    
2 O + M <=> O2 + M                                  1.8900000E+013    0.0000000E+000   -1.7880000E+003    
HO2 + H <=> O2 + H2                                 1.2500000E+013    0.0000000E+000    0.0000000E+000    
2 HO2 <=> H2O2 + O2                                 2.0000000E+012    0.0000000E+000    0.0000000E+000    
H2O2 + M <=> 2 OH + M                               4.3000000E+016    0.0000000E+000    4.5500000E+004    
   CO/ 2.000/  CO2/ 5.000/  H2/ 3.300/  H2O/ 21.000/
H2O2 + H <=> HO2 + H2                               1.6000000E+012    0.0000000E+000    3.8000000E+003    
H2O2 + OH <=> HO2 + H2O                             1.0000000E+013    0.0000000E+000    1.8000000E+003    
H2O2 + H <=> H2O + OH                               1.0000000E+013    0.0000000E+000    3.5900000E+003    
H2O2 + O <=> O2 + H2O                               8.4000000E+011    0.0000000E+000    4.2600000E+003    
H2O2 + O <=> HO2 + OH                               2.0000000E+013    0.0000000E+000    5.9000000E+003    
HO2 + H2 <=> H2O + OH                               6.5000000E+011    0.0000000E+000    1.8800000E+004    
NO + N <=> N2 + O                                   3.2700000E+012    3.0000000E-001    0.0000000E+000    
O2 + N <=> NO + O                                   6.4000000E+009    1.0000000E+000    6.2800000E+003    
OH + N <=> NO + H                                   7.3330000E+013    0.0000000E+000    1.1200000E+003    
O2 + CH2O <=> HO2 + HCO                             6.2000000E+013    0.0000000E+000    3.9000000E+004    
CH2O + O <=> HCO + OH                               1.8000000E+013    0.0000000E+000    3.0800000E+003    
CH2O + H <=> HCO + H2                               2.1900000E+008    1.8000000E+000    3.0000000E+003    
CH2O + OH <=> HCO + H2O                             2.4300000E+010    1.2000000E+000   -4.4700000E+002    
HO2 + CH2O <=> H2O2 + HCO                           3.0000000E+012    0.0000000E+000    8.0000000E+003    
CH2O + M <=> CO + H2 + M                            6.2500000E+015    0.0000000E+000    6.9540000E+004    
CH2O + M <=> HCO + H + M                            4.0000000E+023   -1.6600000E+000    9.1120000E+004    
2 HCO <=> CH2O + CO                                 3.0100000E+013    0.0000000E+000    0.0000000E+000    
HCO + OH <=> CO + H2O                               1.0000000E+014    0.0000000E+000    0.0000000E+000    
HCO + H <=> CO + H2                                 1.1900000E+013    3.0000000E-001    0.0000000E+000    
HCO + O <=> CO + OH                                 3.0000000E+013    0.0000000E+000    0.0000000E+000    
HCO + O <=> CO2 + H                                 3.0000000E+013    0.0000000E+000    0.0000000E+000    
O2 + HCO <=> HO2 + CO                               3.3000000E+013   -4.0000000E-001    0.0000000E+000    
HCO + M <=> CO + H + M                              1.8700000E+017   -1.0000000E+000    1.7000000E+004    
HO2 + HCO <=> CO2 + OH + H                          3.0000000E+013    0.0000000E+000    0.0000000E+000    
O2 + CH4 <=> HO2 + CH3                              7.9000000E+013    0.0000000E+000    5.6000000E+004    
CH4 + H <=> CH3 + H2                                6.6000000E+008    1.6000000E+000    1.0840000E+004    
OH + CH4 <=> H2O + CH3                              1.6000000E+006    2.1000000E+000    2.4600000E+003    
CH4 + O <=> OH + CH3                                1.0200000E+009    1.5000000E+000    8.6040000E+003    
HO2 + CH4 <=> H2O2 + CH3                            1.0000000E+013    0.0000000E+000    1.8700000E+004    
CH4 + CH2 <=> 2 CH3                                 4.0000000E+012    0.0000000E+000   -5.7000000E+002    
CH2O + CH3 <=> HCO + CH4                            5.5000000E+003    2.8000000E+000    6.0000000E+003    
HCO + CH3 <=> CO + CH4                              1.2000000E+014    0.0000000E+000    0.0000000E+000    
CH3 + H <=> CH4                                     1.9000000E+036   -7.0000000E+000    9.0500000E+003    
CH3 + H <=> CH2 + H2                                9.0000000E+013    0.0000000E+000    1.5100000E+004    
2 CH3 <=> C2H5 + H                                  4.9900000E+012    1.0000000E-001    1.0600000E+004    
OH + CH2 <=> CH2O + H                               2.5000000E+013    0.0000000E+000    0.0000000E+000    
O2 + CH2 <=> HCO + OH                               4.3000000E+010    0.0000000E+000   -5.0000000E+002    
O2 + CH2 <=> CO2 + H2                               6.9000000E+011    0.0000000E+000    5.0000000E+002    
O2 + CH2 <=> CO + H2O                               2.0000000E+010    0.0000000E+000   -1.0000000E+003    
O2 + CH2 <=> CH2O + O                               5.0000000E+013    0.0000000E+000    9.0000000E+003    
O2 + CH2 <=> CO2 + 2 H                              1.6000000E+012    0.0000000E+000    1.0000000E+003    
O2 + CH2 <=> CO + OH + H                            8.6000000E+010    0.0000000E+000   -5.0000000E+002    
CO2 + CH2 <=> CH2O + CO                             1.0000000E+011    0.0000000E+000    1.0000000E+003    
HCO + CH3 <=> CH2O + CH2                            3.0000000E+013    0.0000000E+000    0.0000000E+000    
C2H4 + CH3 <=> C2H3 + CH4                           6.6200000E+000    3.7000000E+000    9.4820000E+003    
2 CH3 <=> C2H4 + H2                                 1.0000000E+015    0.0000000E+000    3.1000000E+004    
CH3 + CH2 <=> C2H4 + H                              3.0000000E+013    0.0000000E+000   -5.7000000E+002    
C2H4 + H <=> C2H3 + H2                              1.1000000E+014    0.0000000E+000    8.5000000E+003    
C2H4 + O <=> HCO + CH3                              1.6000000E+009    1.2000000E+000    7.4600000E+002    
C2H4 + O <=> CH2O + CH2                             3.0000000E+004    1.8800000E+000    1.8000000E+002    
C2H4 + O <=> C2H3 + OH                              1.5100000E+007    1.9100000E+000    3.7900000E+003    
C2H4 + OH <=> CH2O + CH3                            6.0000000E+013    0.0000000E+000    9.6000000E+002    
HO2 + C2H4 <=> H2O2 + C2H3                          7.1000000E+011    0.0000000E+000    1.7110000E+004    
C2H4 + OH <=> C2H3 + H2O                            8.0200000E+013    0.0000000E+000    5.9550000E+003    
C2H4 + M <=> C2H3 + H + M                           2.6000000E+017    0.0000000E+000    9.6570000E+004    
C2H4 + H <=> C2H5                                   2.6000000E+043   -9.2500000E+000    5.2580000E+004    
O2 + C2H5 <=> HO2 + C2H4                            2.0000000E+010    0.0000000E+000   -2.2000000E+003    
O2 + C2H4 <=> HO2 + C2H3                            4.2000000E+014    0.0000000E+000    5.7590000E+004    
2 C2H4 <=> C2H5 + C2H3                              5.0000000E+014    0.0000000E+000    6.4700000E+004    
HO2 + C2H5 <=> H2O2 + C2H4                          3.0000000E+011    0.0000000E+000    0.0000000E+000    
O2 + C2H3 <=> CH2O + HCO                            4.0000000E+012    0.0000000E+000   -2.5000000E+002    
HCO + C2H3 <=> C2H4 + CO                            6.0340000E+013    0.0000000E+000    0.0000000E+000    
END