ELEMENTS
H C O N AR
END

SPECIES
NC7H16      C7H15     C7H15O2     C7H14OOH   OOC7H14OOH   OC7H13OOH
C3H7CHO    C3H7CO    C3H7O2      C3H7       C3H6         C3H5
C2H5       C2H4      C2H3        CH3        CH3OH        CH3O
CH2O       HCO       CO          CO2        H2O2         H2O
O2         HO2       OH          O	        H2           H
N2         AR
END

REACTIONS CAL/MOLE  MOLES
NC7H16+O2=C7H15+HO2                             1.50E+15    0.0    47380.0
REV/                                           4.62E+11    0.3      172.0
OH+NC7H16=>C7H15+H2O                            7.00E+14    0.0     3000.0
HO2+NC7H16=C7H15+H2O2                           5.01E+11    0.0    16000.0
REV/                                           6.31E+10    0.0     8000.0
C7H15+O2=C7H15O2                               1.00E+12    0.0        0.0
REV/                                           2.51E+13    0.0    27400.0
C7H15O2=C7H14OOH                               7.94E+11    0.0    19000.0
REV/                                           1.00E+11    0.0    11000.0
C7H14OOH+O2=OOC7H14OOH                         1.80E+10    0.0        0.0
REV/                                           2.51E+13    0.0    27400.0
OOC7H14OOH=>OC7H13OOH+OH                       6.00E+10    0.0    17000.0
OC7H13OOH=>C3H7CHO+CH2O+C2H3+OH                9.00E+14    0.0    41100.0
C7H14OOH=>C3H6+C3H7CHO+OH                      1.80E+13    0.0    25000.0
C3H7CHO+HO2=>H2O2+C3H7CO                       5.01E+11    0.0     8640.0
C3H7CHO+OH=>C3H7CO+H2O                         1.66E+12    0.0        0.0
C3H7CO=>CO+C3H7                                6.03E+16    0.0    15000.0
C3H7+O2=C3H7O2                                 1.00E+12    0.0        0.0
REV/                                           2.51E+13    0.0    27400.0
C3H7O2=>C3H6+HO2                               5.62E+11    0.0    28900.0
C7H15=>C2H4+C2H5+C3H6                          7.04E+13    0.0    34600.0
C3H7=>C2H4+CH3                                 9.60E+13    0.0    30950.0
C2H5+O2=>C2H4+HO2                              2.00E+10    0.0    -2200.0
C2H4+OH=>C2H3+H2O                              6.02E+13    0.0     5955.0
C2H3+O2=>CH2O+HCO                              4.00E+12    0.0     -251.0
C3H6+OH=>C3H5+H2O                              3.12E+06    2.0     -298.0
C3H5+O2=>CH3+CH2O+CO                           4.00E+12    0.0        0.0
CH3+HO2=>CH3O+OH                               5.00E+13    0.0        0.0
CH3+O=>CH2O+H                                  8.00E+13    0.0        0.0
CH3OH+O2=CH3O+HO2                              2.05E+13    0.0    44900.0
REV/                                           2.42E+12   -0.3    -3015.9
CH3OH+OH=>CH3O+H2O                             2.00E+07    1.8     1200.0
CH3OH+HO2=CH3O+H2O2                            2.50E+12    0.0    19400.0
REV/                                           6.28E+13   -0.7    11874.3
CH3O+O2=>CH2O+HO2                              2.41E+14    0.0     5017.0
CH2O+OH=>HCO+H2O                               3.47E+09    1.2     -477.0
HCO+O2=>CO+HO2                                 1.35E+13    0.0      400.0
CO+O+M=>CO2+M                                  4.17E+14    0.0     3000.0
CO+OH=CO2+H                                    3.51E+07    1.2       69.0
REV/                                           9.45E+13    0.0    26089.0
H2O2+M=>2OH+M                                  1.20E+17    0.0    45500.0
HO2+HO2=>H2O2+O2                               2.00E+12    0.0        0.0
H+O2=O+OH                                      2.63E+16   -0.7    17040.0
REV/                                           7.87E+13   -0.3     -278.0
H+O2+M=HO2+M                                   2.80E+18   -0.9        0.0
REV/                                           4.66E+18   -0.9    48023.0
H2+OH=H2O+H                                    1.17E+09    1.3     3626.0
REV/                                           1.24E+10    1.2    19092.0
O+H2=OH+H                                      5.06E+04    2.7     6290.0
REV/                                           2.37E+04    2.7     4287.0
HO2+OH=>H2O+O2                                 7.50E+12    0.0        0.0
END
THERMO
   300.000  1000.000  5000.000
NC7H16             THERMC   7H  16          G   300.000  5000.000 1391.000     1
 2.22148969E+01 3.47675750E-02-1.18407129E-05 1.83298478E-09-1.06130266E-13    2
-3.42760081E+04-9.23040196E+01-1.26836187E+00 8.54355820E-02-5.25346786E-05    3
 1.62945721E-08-2.02394925E-12-2.56586565E+04 3.53732912E+01                   4
C7H15              THERMC   7H  15          G   300.000  5000.000 1390.000     1
 2.17940709E+01 3.26280243E-02-1.11138244E-05 1.72067148E-09-9.96366999E-14    2
-1.22093822E+04-8.64954311E+01-4.99570406E-01 8.08826467E-02-5.00532754E-05    3
 1.56549308E-08-1.96616227E-12-4.04590223E+03 3.46564011E+01                   4
C7H15O2            THERMC   7H  15O   2     G   300.000  5000.000 1390.000     1
 2.60535640E+01 3.43831688E-02-1.18713247E-05 1.85450241E-09-1.08052399E-13    2
-2.91842095E+04-1.06097045E+02 3.55252917E-01 9.42381007E-02-6.66955106E-05    3
 2.54795583E-08-4.13211105E-12-2.00795254E+04 3.22538619E+01                   4
C7H14OOH           THERMC   7H  15O   2     G   300.000  5000.000 1389.000     1
 2.74034778E+01 3.27527893E-02-1.12991770E-05 1.76444649E-09-1.02786945E-13    2
-2.58636651E+04-1.10201978E+02 8.49786005E-01 9.25107196E-02-6.25359834E-05    3
 2.17880390E-08-3.12720398E-12-1.63640679E+04 3.32997487E+01                   4
OOC7H14OOH         THERMC   7H  15O   4     G   300.000  5000.000 1390.000     1
 3.28358296E+01 3.32767285E-02-1.15833285E-05 1.81958638E-09-1.06434419E-13    2
-4.52873003E+04-1.35975710E+02 1.40912479E+00 1.10720834E-01-8.71178075E-05    3
 3.63662749E-08-6.28350689E-12-3.46304788E+04 3.16223383E+01                   4
OC7H13OOH          THERMC   7H  14O   3     G   300.000  5000.000 1387.000     1
 2.88330388E+01 3.20168096E-02-1.11508456E-05 1.75226159E-09-1.02520451E-13    2
-6.20142474E+04-1.17499704E+02 1.52936692E+00 9.58173466E-02-6.96688520E-05    3
 2.69540382E-08-4.38728126E-12-5.23839542E+04 2.93851334E+01                   4
C3H7CHO            THERMC   4H   8O   1     G   300.000  5000.000 1378.00      1
 1.35988068E+01 1.81652474E-02-6.17844458E-06 9.55980208E-10-5.53442958E-14    2
-3.15845348E+04-4.51790228E+01 1.87415959E+00 4.19240315E-02-2.35148779E-05    3
 6.26913673E-09-6.09443908E-13-2.71032194E+04 1.91568574E+01                   4
C3H7CO             THERMC   4H   7O   1     G   300.000  5000.000 1380.00      1
 1.30026331E+01 1.63104877E-02-5.57642899E-06 8.65670629E-10-5.02255667E-14    2
-1.31523385E+04-4.02608515E+01 2.67256826E+00 3.71198825E-02-2.06862859E-05    3
 5.48873888E-09-5.35864183E-13-9.18050888E+03 1.64848950E+01                   4
C3H7O2             THERMC   3H   7O   2     G   300.000  5000.000 1384.000     1
 1.26327059E+01 1.69910726E-02-5.88866873E-06 9.22195396E-10-5.38230675E-14    2
-0.95194652E+04-3.85349297E+01 2.10731492E+00 3.96164986E-02-2.49491599E-05    3
 8.59450300E-09-1.31240330E-12-5.53745567E+03 1.89082748E+01                   4
C3H7               THERMC   3H   7          G   300.00   5000.00  1000.00      1
 0.07978291E+02 0.01576113E+00-0.05173243E-04 0.07443892E-08-0.03824978E-12    2
 0.08679402E+05-0.01935611E+03 0.01922537E+02 0.02478927E+00 0.01810249E-04    3
-0.01783266E-06 0.08582996E-10 0.10813281E+05 0.01399271E+03                   4
C3H6               THERMC   3H   6          G   300.000  5000.000 1388.000     1
 8.01595958E+00 1.37023634E-02-4.66249733E-06 7.21254402E-10-4.17370126E-14    2
-1.87821271E+03-2.00160668E+01 3.94615444E-01 2.89107662E-02-1.54886808E-05    3
 3.88814209E-09-3.37890352E-13 1.06688164E+03 2.19003736E+01                   4
C3H5               THERMC   3H   5          G   300.000  5000.000 1382.000     1
 7.37492443E+00 1.17510061E-02-4.00021283E-06 6.18947395E-10-3.58215018E-14    2
 2.73982108E+04-1.43478655E+01 2.17916644E+00 2.03826623E-02-7.91413834E-06    3
 4.76906187E-10 2.70398536E-13 2.96002535E+04 1.48785684E+01                   4
C2H5               THERMC   2H   5          G   300.00   5000.00  1000.00      1
 0.07190480E+02 0.06484077E-01-0.06428065E-05-0.02347879E-08 0.03880877E-12    2
 0.01067455E+06-0.01478089E+03 0.02690702E+02 0.08719133E-01 0.04419839E-04    3
 0.09338703E-08-0.03927773E-10 0.01287040E+06 0.01213820E+03                   4
C2H4               THERMC   2H   4          G   300.000  5000.000 1395.000     1
 5.22176372E+00 8.96137303E-03-3.04868886E-06 4.71465524E-10-2.72739592E-14    2
 3.60389679E+03-7.47789234E+00 2.33879687E-01 1.96334647E-02-1.16833214E-05    3
 3.64246453E-09-4.77442715E-13 5.46489338E+03 1.97084228E+01                   4
C2H3               THERMC   2H   3          G   300.00   5000.00  1000.00      1
 0.05933468E+02 0.04017746E-01-0.03966740E-05-0.01441267E-08 0.02378644E-12    2
-0.00240015E+06-0.08530313E+02 0.02459276E+02 0.07371476E-01 0.02109873E-04    3
-0.01321642E-07-0.01184784E-10-0.00090225E+06 0.01155620E+03                   4
CH3                THERMC   1H   3          G   300.000  5000.000 1389.000     1
 3.51281376E+00 5.11412613E-03-1.67632050E-06 2.52495174E-10-1.43302923E-14    2
 1.61238027E+04 1.62436112E+00 3.43858162E+00 4.07752664E-03 3.19830994E-07    3
-9.47669390E-10 2.21828166E-13 1.63164018E+04 2.52807406E+00                   4
CH3OH              THERMC   1H   4O   1     G   300.00   5000.00  1000.00      1
 0.04029061E+02 0.09376593E-01-0.03050254E-04 0.04358793E-08-0.02224723E-12    2
-0.02615791E+06 0.02378196E+02 0.02660115E+02 0.07341508E-01 0.07170051E-04    3
-0.08793194E-07 0.02390570E-10-0.02535348E+06 0.01123263E+03                   4
CH3O               THERMH   3C   1O   1     G   250.00   4000.00  1000.00      1
 0.06327520E+02 0.03608271E-01-0.03201547E-05-0.01938750E-08 0.03509705E-12    2
-0.04474509E+05-0.08329366E+02 0.02862628E+02 0.01001527E+00-0.05285436E-05    3
-0.05138540E-07 0.02246041E-10-0.03349679E+05 0.01039794E+03                   4
CH2O               THERMC   1H   2O   1     G   300.00   5000.00  1000.00      1
 0.02995606E+02 0.06681321E-01-0.02628955E-04 0.04737153E-08-0.03212517E-12    2
-0.01532037E+06 0.06912572E+02 0.01652731E+02 0.01263144E+00-0.01888168E-03    3
 0.02050031E-06-0.08413237E-10-0.01486540E+06 0.01378482E+03                   4
HCO                THERMH   1C   1O   1     G   300.00   5000.00  1000.00      1
 0.03557271E+02 0.03345573E-01-0.01335006E-04 0.02470573E-08-0.01713851E-12    2
 0.03916324E+05 0.05552299E+02 0.02898330E+02 0.06199147E-01-0.09623084E-04    3
 0.01089825E-06-0.04574885E-10 0.04159922E+05 0.08983614E+02                   4
CO                 THERMC   1O   1          G   300.00   5000.00  1000.00      1
 0.03025078E+02 0.01442689E-01-0.05630828E-05 0.01018581E-08-0.06910952E-13    2
-0.01426835E+06 0.06108218E+02 0.03262452E+02 0.01511941E-01-0.03881755E-04    3
 0.05581944E-07-0.02474951E-10-0.01431054E+06 0.04848897E+02                   4
CO2                THERMC   1O   2          G   300.000  5000.000 1380.000     1
 5.18953018E+00 2.06006476E-03-7.33575324E-07 1.17004374E-10-6.91729215E-15    2
-4.93178953E+04-5.18289303E+00 2.57930490E+00 8.24684987E-03-6.42716047E-06    3
 2.54637024E-09-4.12030443E-13-4.84162830E+04 8.81141041E+00                   4
H2O2               THERMH   2O   2          G   300.00   5000.00  1000.00      1
 0.04573167E+02 0.04336136E-01-0.01474689E-04 0.02348904E-08-0.01431654E-12    2
-0.01800696E+06 0.05011370E+01 0.03388754E+02 0.06569226E-01-0.01485013E-05    3
-0.04625806E-07 0.02471515E-10-0.01766315E+06 0.06785363E+02                   4
H2O                THERMH   2O   1          G   300.00   5000.00  1000.00      1
 0.02672146E+02 0.03056293E-01-0.08730260E-05 0.01200996E-08-0.06391618E-13    2
-0.02989921E+06 0.06862817E+02 0.03386842E+02 0.03474982E-01-0.06354696E-04    3
 0.06968581E-07-0.02506588E-10-0.03020811E+06 0.02590233E+02                   4
O2                 THERMO   2               G   300.00   5000.00  1000.00      1
 0.03697578E+02 0.06135197E-02-0.01258842E-05 0.01775281E-09-0.01136435E-13    2
-0.01233930E+05 0.03189166E+02 0.03212936E+02 0.01127486E-01-0.05756150E-05    3
 0.01313877E-07-0.08768554E-11-0.01005249E+05 0.06034738E+02                   4
HO2                THERMH   1O   2          G   300.000  5000.000 1390.000     1
 4.10547423E+00 2.38452835E-03-8.06347989E-07 1.24191723E-10-7.16400108E-15    2
 3.98127689E+02 3.12515836E+00 3.18310656E+00 3.66767950E-03-9.32385122E-07    3
-3.25852919E-10 1.51139912E-13 8.09181013E+02 8.39371099E+00                   4
OH                 THERMH   1O   1          G   300.000  5000.000 1357.000     1
 2.62599754E+00 1.31992406E-03-3.59724670E-07 4.25630800E-11-1.82048016E-15    2
 4.12085374E+03 7.10667307E+00 3.43586219E+00 2.02235804E-04-1.13546412E-07    3
 2.42445149E-10-7.43651031E-14 3.74321252E+03 2.45014127E+00                   4
O                  THERMO   1               G   300.00   5000.00  1000.00      1
 0.02542060E+02-0.02755062E-03-0.03102803E-07 0.04551067E-10-0.04368052E-14    2
 0.02923080E+06 0.04920308E+02 0.02946429E+02-0.01638166E-01 0.02421032E-04    3
-0.01602843E-07 0.03890696E-11 0.02914764E+06 0.02963995E+02                   4
H2                 THERMH   2               G   300.00   5000.00  1000.00      1
 0.02991423E+02 0.07000644E-02-0.05633829E-06-0.09231578E-10 0.01582752E-13    2
-0.08350340E+04-0.01355110E+02 0.03298124E+02 0.08249442E-02-0.08143015E-05    3
-0.09475434E-09 0.04134872E-11-0.01012521E+05-0.03294094E+02                   4
H                  THERMH   1               G   300.00   5000.00  1000.00      1
 0.02500000E+02 0.00000000E+00 0.00000000E+00 0.00000000E+00 0.00000000E+00    2
 0.02547163E+06-0.04601176E+01 0.02500000E+02 0.00000000E+00 0.00000000E+00    3
 0.00000000E+00 0.00000000E+00 0.02547163E+06-0.04601176E+01                   4
N2                 THERMN   2               G   300.00   5000.00  1000.00      1
 0.02926640E+02 0.01487977E-01-0.05684761E-05 0.01009704E-08-0.06753351E-13    2
-0.09227977E+04 0.05980528E+02 0.03298677E+02 0.01408240E-01-0.03963222E-04    3
 0.05641515E-07-0.02444855E-10-0.01020900E+05 0.03950372E+02                   4
AR                 THERMAR  1               G   300.00   5000.00  1000.00      1
 0.02500000E+02 0.00000000E+00 0.00000000E+00 0.00000000E+00 0.00000000E+00    2
-0.07453750E+04 0.04366001E+02 0.02500000E+02 0.00000000E+00 0.00000000E+00    3
 0.00000000E+00 0.00000000E+00-0.07453750E+04 0.04366001E+02                   4
